/*--------------------------------*- C++ -*----------------------------------*\
| =========                 |                                                 |
| \\      /  F ield         | OpenFOAM: The Open Source CFD Toolbox           |
|  \\    /   O peration     | Version:  2.4.0                                 |
|   \\  /    A nd           | Web:      www.OpenFOAM.org                      |
|    \\/     M anipulation  |                                                 |
\*---------------------------------------------------------------------------*/
FoamFile
{
    version     2.0;
    format      ascii;
    class       polyBoundaryMesh;
    location    "0/polyMesh";
    object      boundary;
}
// * * * * * * * * * * * * * * * * * * * * * * * * * * * * * * * * * * * * * //

14
(
    plane1
    {
        type            symmetryPlane;
        inGroups        1(symmetryPlane);
        nFaces          0;
        startFace       530422;
    }
    plane2
    {
        type            symmetryPlane;
        inGroups        1(symmetryPlane);
        nFaces          175;
        startFace       530422;
    }
    outlet
    {
        type            patch;
        nFaces          0;
        startFace       530597;
    }
    inlet
    {
        type            patch;
        nFaces          0;
        startFace       530597;
    }
    wing
    {
        type            wall;
        inGroups        1(wall);
        nFaces          7965;
        startFace       530597;
    }
    fan01
    {
        type            cyclic;
        inGroups        
2
(
cyclic
cyclicFaces
)
;
        nFaces          5697;
        startFace       538562;
        matchTolerance  0.0001;
        transform       unknown;
        neighbourPatch  fan02;
    }
    fan02
    {
        type            cyclic;
        inGroups        
2
(
cyclic
cyclicFaces
)
;
        nFaces          5697;
        startFace       544259;
        matchTolerance  0.0001;
        transform       unknown;
        neighbourPatch  fan01;
    }
    procBoundary3to0
    {
        type            processor;
        inGroups        1(processor);
        nFaces          1425;
        startFace       549956;
        matchTolerance  0.0001;
        transform       unknown;
        myProcNo        3;
        neighbProcNo    0;
    }
    procBoundary3to1
    {
        type            processor;
        inGroups        1(processor);
        nFaces          1004;
        startFace       551381;
        matchTolerance  0.0001;
        transform       unknown;
        myProcNo        3;
        neighbProcNo    1;
    }
    procBoundary3to2
    {
        type            processor;
        inGroups        1(processor);
        nFaces          5105;
        startFace       552385;
        matchTolerance  0.0001;
        transform       unknown;
        myProcNo        3;
        neighbProcNo    2;
    }
    procBoundary3to8
    {
        type            processor;
        inGroups        1(processor);
        nFaces          313;
        startFace       557490;
        matchTolerance  0.0001;
        transform       unknown;
        myProcNo        3;
        neighbProcNo    8;
    }
    procBoundary3to11
    {
        type            processor;
        inGroups        1(processor);
        nFaces          160;
        startFace       557803;
        matchTolerance  0.0001;
        transform       unknown;
        myProcNo        3;
        neighbProcNo    11;
    }
    procBoundary3to12
    {
        type            processor;
        inGroups        1(processor);
        nFaces          104;
        startFace       557963;
        matchTolerance  0.0001;
        transform       unknown;
        myProcNo        3;
        neighbProcNo    12;
    }
    procBoundary3to14
    {
        type            processor;
        inGroups        1(processor);
        nFaces          143;
        startFace       558067;
        matchTolerance  0.0001;
        transform       unknown;
        myProcNo        3;
        neighbProcNo    14;
    }
)

// ************************************************************************* //
