/*--------------------------------*- C++ -*----------------------------------*\
| =========                 |                                                 |
| \\      /  F ield         | OpenFOAM: The Open Source CFD Toolbox           |
|  \\    /   O peration     | Version:  2.4.0                                 |
|   \\  /    A nd           | Web:      www.OpenFOAM.org                      |
|    \\/     M anipulation  |                                                 |
\*---------------------------------------------------------------------------*/
FoamFile
{
    version     2.0;
    format      ascii;
    class       polyBoundaryMesh;
    location    "0/polyMesh";
    object      boundary;
}
// * * * * * * * * * * * * * * * * * * * * * * * * * * * * * * * * * * * * * //

14
(
    plane1
    {
        type            symmetryPlane;
        inGroups        1(symmetryPlane);
        nFaces          0;
        startFace       42682;
    }
    plane2
    {
        type            symmetryPlane;
        inGroups        1(symmetryPlane);
        nFaces          0;
        startFace       42682;
    }
    outlet
    {
        type            patch;
        nFaces          0;
        startFace       42682;
    }
    inlet
    {
        type            patch;
        nFaces          0;
        startFace       42682;
    }
    wing
    {
        type            wall;
        inGroups        1(wall);
        nFaces          2154;
        startFace       42682;
    }
    fan01
    {
        type            cyclic;
        inGroups        
2
(
cyclic
cyclicFaces
)
;
        nFaces          0;
        startFace       44836;
        matchTolerance  0.0001;
        transform       unknown;
        neighbourPatch  fan02;
    }
    fan02
    {
        type            cyclic;
        inGroups        
2
(
cyclic
cyclicFaces
)
;
        nFaces          0;
        startFace       44836;
        matchTolerance  0.0001;
        transform       unknown;
        neighbourPatch  fan01;
    }
    procBoundary15to6
    {
        type            processor;
        inGroups        1(processor);
        nFaces          336;
        startFace       44836;
        matchTolerance  0.0001;
        transform       unknown;
        myProcNo        15;
        neighbProcNo    6;
    }
    procBoundary15to9
    {
        type            processor;
        inGroups        1(processor);
        nFaces          331;
        startFace       45172;
        matchTolerance  0.0001;
        transform       unknown;
        myProcNo        15;
        neighbProcNo    9;
    }
    procBoundary15to13
    {
        type            processor;
        inGroups        1(processor);
        nFaces          108;
        startFace       45503;
        matchTolerance  0.0001;
        transform       unknown;
        myProcNo        15;
        neighbProcNo    13;
    }
    procBoundary15to14
    {
        type            processor;
        inGroups        1(processor);
        nFaces          570;
        startFace       45611;
        matchTolerance  0.0001;
        transform       unknown;
        myProcNo        15;
        neighbProcNo    14;
    }
    procBoundary15to18
    {
        type            processor;
        inGroups        1(processor);
        nFaces          180;
        startFace       46181;
        matchTolerance  0.0001;
        transform       unknown;
        myProcNo        15;
        neighbProcNo    18;
    }
    procBoundary15to21
    {
        type            processor;
        inGroups        1(processor);
        nFaces          449;
        startFace       46361;
        matchTolerance  0.0001;
        transform       unknown;
        myProcNo        15;
        neighbProcNo    21;
    }
    procBoundary15to23
    {
        type            processor;
        inGroups        1(processor);
        nFaces          22;
        startFace       46810;
        matchTolerance  0.0001;
        transform       unknown;
        myProcNo        15;
        neighbProcNo    23;
    }
)

// ************************************************************************* //
