/*--------------------------------*- C++ -*----------------------------------*\
| =========                 |                                                 |
| \\      /  F ield         | OpenFOAM: The Open Source CFD Toolbox           |
|  \\    /   O peration     | Version:  2.4.0                                 |
|   \\  /    A nd           | Web:      www.OpenFOAM.org                      |
|    \\/     M anipulation  |                                                 |
\*---------------------------------------------------------------------------*/
FoamFile
{
    version     2.0;
    format      ascii;
    class       polyBoundaryMesh;
    location    "0/polyMesh";
    object      boundary;
}
// * * * * * * * * * * * * * * * * * * * * * * * * * * * * * * * * * * * * * //

15
(
    plane1
    {
        type            symmetryPlane;
        inGroups        1(symmetryPlane);
        nFaces          67;
        startFace       21200;
    }
    plane2
    {
        type            symmetryPlane;
        inGroups        1(symmetryPlane);
        nFaces          0;
        startFace       21267;
    }
    outlet
    {
        type            patch;
        nFaces          0;
        startFace       21267;
    }
    inlet
    {
        type            patch;
        nFaces          0;
        startFace       21267;
    }
    wing
    {
        type            wall;
        inGroups        1(wall);
        nFaces          950;
        startFace       21267;
    }
    fan01
    {
        type            cyclic;
        inGroups        
2
(
cyclic
cyclicFaces
)
;
        nFaces          0;
        startFace       22217;
        matchTolerance  0.0001;
        transform       unknown;
        neighbourPatch  fan02;
    }
    fan02
    {
        type            cyclic;
        inGroups        
2
(
cyclic
cyclicFaces
)
;
        nFaces          0;
        startFace       22217;
        matchTolerance  0.0001;
        transform       unknown;
        neighbourPatch  fan01;
    }
    procBoundary51to32
    {
        type            processor;
        inGroups        1(processor);
        nFaces          1;
        startFace       22217;
        matchTolerance  0.0001;
        transform       unknown;
        myProcNo        51;
        neighbProcNo    32;
    }
    procBoundary51to36
    {
        type            processor;
        inGroups        1(processor);
        nFaces          326;
        startFace       22218;
        matchTolerance  0.0001;
        transform       unknown;
        myProcNo        51;
        neighbProcNo    36;
    }
    procBoundary51to37
    {
        type            processor;
        inGroups        1(processor);
        nFaces          2;
        startFace       22544;
        matchTolerance  0.0001;
        transform       unknown;
        myProcNo        51;
        neighbProcNo    37;
    }
    procBoundary51to40
    {
        type            processor;
        inGroups        1(processor);
        nFaces          69;
        startFace       22546;
        matchTolerance  0.0001;
        transform       unknown;
        myProcNo        51;
        neighbProcNo    40;
    }
    procBoundary51to48
    {
        type            processor;
        inGroups        1(processor);
        nFaces          456;
        startFace       22615;
        matchTolerance  0.0001;
        transform       unknown;
        myProcNo        51;
        neighbProcNo    48;
    }
    procBoundary51to50
    {
        type            processor;
        inGroups        1(processor);
        nFaces          200;
        startFace       23071;
        matchTolerance  0.0001;
        transform       unknown;
        myProcNo        51;
        neighbProcNo    50;
    }
    procBoundary51to54
    {
        type            processor;
        inGroups        1(processor);
        nFaces          139;
        startFace       23271;
        matchTolerance  0.0001;
        transform       unknown;
        myProcNo        51;
        neighbProcNo    54;
    }
    procBoundary51to55
    {
        type            processor;
        inGroups        1(processor);
        nFaces          268;
        startFace       23410;
        matchTolerance  0.0001;
        transform       unknown;
        myProcNo        51;
        neighbProcNo    55;
    }
)

// ************************************************************************* //
