/*--------------------------------*- C++ -*----------------------------------*\
| =========                 |                                                 |
| \\      /  F ield         | OpenFOAM: The Open Source CFD Toolbox           |
|  \\    /   O peration     | Version:  2.4.0                                 |
|   \\  /    A nd           | Web:      www.OpenFOAM.org                      |
|    \\/     M anipulation  |                                                 |
\*---------------------------------------------------------------------------*/
FoamFile
{
    version     2.0;
    format      ascii;
    class       polyBoundaryMesh;
    location    "0/polyMesh";
    object      boundary;
}
// * * * * * * * * * * * * * * * * * * * * * * * * * * * * * * * * * * * * * //

14
(
    plane1
    {
        type            symmetryPlane;
        inGroups        1(symmetryPlane);
        nFaces          0;
        startFace       21326;
    }
    plane2
    {
        type            symmetryPlane;
        inGroups        1(symmetryPlane);
        nFaces          0;
        startFace       21326;
    }
    outlet
    {
        type            patch;
        nFaces          0;
        startFace       21326;
    }
    inlet
    {
        type            patch;
        nFaces          0;
        startFace       21326;
    }
    wing
    {
        type            wall;
        inGroups        1(wall);
        nFaces          1070;
        startFace       21326;
    }
    fan01
    {
        type            cyclic;
        inGroups        
2
(
cyclic
cyclicFaces
)
;
        nFaces          0;
        startFace       22396;
        matchTolerance  0.0001;
        transform       unknown;
        neighbourPatch  fan02;
    }
    fan02
    {
        type            cyclic;
        inGroups        
2
(
cyclic
cyclicFaces
)
;
        nFaces          0;
        startFace       22396;
        matchTolerance  0.0001;
        transform       unknown;
        neighbourPatch  fan01;
    }
    procBoundary55to22
    {
        type            processor;
        inGroups        1(processor);
        nFaces          51;
        startFace       22396;
        matchTolerance  0.0001;
        transform       unknown;
        myProcNo        55;
        neighbProcNo    22;
    }
    procBoundary55to40
    {
        type            processor;
        inGroups        1(processor);
        nFaces          23;
        startFace       22447;
        matchTolerance  0.0001;
        transform       unknown;
        myProcNo        55;
        neighbProcNo    40;
    }
    procBoundary55to50
    {
        type            processor;
        inGroups        1(processor);
        nFaces          174;
        startFace       22470;
        matchTolerance  0.0001;
        transform       unknown;
        myProcNo        55;
        neighbProcNo    50;
    }
    procBoundary55to51
    {
        type            processor;
        inGroups        1(processor);
        nFaces          268;
        startFace       22644;
        matchTolerance  0.0001;
        transform       unknown;
        myProcNo        55;
        neighbProcNo    51;
    }
    procBoundary55to52
    {
        type            processor;
        inGroups        1(processor);
        nFaces          128;
        startFace       22912;
        matchTolerance  0.0001;
        transform       unknown;
        myProcNo        55;
        neighbProcNo    52;
    }
    procBoundary55to53
    {
        type            processor;
        inGroups        1(processor);
        nFaces          305;
        startFace       23040;
        matchTolerance  0.0001;
        transform       unknown;
        myProcNo        55;
        neighbProcNo    53;
    }
    procBoundary55to54
    {
        type            processor;
        inGroups        1(processor);
        nFaces          258;
        startFace       23345;
        matchTolerance  0.0001;
        transform       unknown;
        myProcNo        55;
        neighbProcNo    54;
    }
)

// ************************************************************************* //
