/*--------------------------------*- C++ -*----------------------------------*\
| =========                 |                                                 |
| \\      /  F ield         | OpenFOAM: The Open Source CFD Toolbox           |
|  \\    /   O peration     | Version:  2.3.0                                 |
|   \\  /    A nd           | Web:      www.OpenFOAM.org                      |
|    \\/     M anipulation  |                                                 |
\*---------------------------------------------------------------------------*/
FoamFile
{
    version     2.0;
    format      ascii;
    class       dictionary;
    object      blockMeshDict;
}

// * * * * * * * * * * * * * * * * * * * * * * * * * * * * * * * * * * * * * //

convertToMeters 1;

vertices
(
    ( 10  0.4 -8)
    (-10  0.4 -8)
    (-10 -0.4 -8)
    ( 10 -0.4 -8)
    ( 10  0.4  8)
    (-10  0.4  8)
    (-10 -0.4  8)
    ( 10 -0.4  8)
);

blocks
(
    hex (0 1 2 3 4 5 6 7) (19 1 16) simpleGrading (1 1 1)
);

edges
(
);

boundary
(
    plane1
    {
        type symmetryPlane;
        faces
        (
            (1 5 4 0)  
        );
    }
    plane2
    {
        type symmetryPlane;
        faces
        (
	    (2 3 7 6)    
        );
    }
    outlet
    {
        type patch;
        faces
        (
            (0 3 2 1)
            (0 4 7 3)
            (4 5 6 7)
        );
    }
    inlet
    {
        type patch;
        faces
        (
            (2 6 5 1)     
        );
    }
);

// ************************************************************************* //
