/*--------------------------------*- C++ -*----------------------------------*\
| =========                 |                                                 |
| \\      /  F ield         | OpenFOAM: The Open Source CFD Toolbox           |
|  \\    /   O peration     | Version:  2.4.0                                 |
|   \\  /    A nd           | Web:      www.OpenFOAM.org                      |
|    \\/     M anipulation  |                                                 |
\*---------------------------------------------------------------------------*/
FoamFile
{
    version     2.0;
    format      ascii;
    class       polyBoundaryMesh;
    location    "0/polyMesh";
    object      boundary;
}
// * * * * * * * * * * * * * * * * * * * * * * * * * * * * * * * * * * * * * //

40
(
    plane1
    {
        type            symmetryPlane;
        inGroups        1(symmetryPlane);
        nFaces          555;
        startFace       43843;
    }
    plane2
    {
        type            symmetryPlane;
        inGroups        1(symmetryPlane);
        nFaces          548;
        startFace       44398;
    }
    outlet
    {
        type            patch;
        nFaces          54;
        startFace       44946;
    }
    inlet
    {
        type            patch;
        nFaces          16;
        startFace       45000;
    }
    wing
    {
        type            wall;
        inGroups        1(wall);
        nFaces          815;
        startFace       45016;
    }
    fan01
    {
        type            cyclic;
        inGroups        
2
(
cyclic
cyclicFaces
)
;
        nFaces          604;
        startFace       45831;
        matchTolerance  0.0001;
        transform       unknown;
        neighbourPatch  fan02;
    }
    fan02
    {
        type            cyclic;
        inGroups        
2
(
cyclic
cyclicFaces
)
;
        nFaces          604;
        startFace       46435;
        matchTolerance  0.0001;
        transform       unknown;
        neighbourPatch  fan01;
    }
    procBoundary23to0
    {
        type            processor;
        inGroups        1(processor);
        nFaces          20;
        startFace       47039;
        matchTolerance  0.0001;
        transform       unknown;
        myProcNo        23;
        neighbProcNo    0;
    }
    procBoundary23to1
    {
        type            processor;
        inGroups        1(processor);
        nFaces          44;
        startFace       47059;
        matchTolerance  0.0001;
        transform       unknown;
        myProcNo        23;
        neighbProcNo    1;
    }
    procBoundary23to2
    {
        type            processor;
        inGroups        1(processor);
        nFaces          10;
        startFace       47103;
        matchTolerance  0.0001;
        transform       unknown;
        myProcNo        23;
        neighbProcNo    2;
    }
    procBoundary23to3
    {
        type            processor;
        inGroups        1(processor);
        nFaces          17;
        startFace       47113;
        matchTolerance  0.0001;
        transform       unknown;
        myProcNo        23;
        neighbProcNo    3;
    }
    procBoundary23to4
    {
        type            processor;
        inGroups        1(processor);
        nFaces          52;
        startFace       47130;
        matchTolerance  0.0001;
        transform       unknown;
        myProcNo        23;
        neighbProcNo    4;
    }
    procBoundary23to5
    {
        type            processor;
        inGroups        1(processor);
        nFaces          20;
        startFace       47182;
        matchTolerance  0.0001;
        transform       unknown;
        myProcNo        23;
        neighbProcNo    5;
    }
    procBoundary23to6
    {
        type            processor;
        inGroups        1(processor);
        nFaces          50;
        startFace       47202;
        matchTolerance  0.0001;
        transform       unknown;
        myProcNo        23;
        neighbProcNo    6;
    }
    procBoundary23to7
    {
        type            processor;
        inGroups        1(processor);
        nFaces          15;
        startFace       47252;
        matchTolerance  0.0001;
        transform       unknown;
        myProcNo        23;
        neighbProcNo    7;
    }
    procBoundary23to8
    {
        type            processor;
        inGroups        1(processor);
        nFaces          59;
        startFace       47267;
        matchTolerance  0.0001;
        transform       unknown;
        myProcNo        23;
        neighbProcNo    8;
    }
    procBoundary23to9
    {
        type            processor;
        inGroups        1(processor);
        nFaces          14;
        startFace       47326;
        matchTolerance  0.0001;
        transform       unknown;
        myProcNo        23;
        neighbProcNo    9;
    }
    procBoundary23to10
    {
        type            processor;
        inGroups        1(processor);
        nFaces          10;
        startFace       47340;
        matchTolerance  0.0001;
        transform       unknown;
        myProcNo        23;
        neighbProcNo    10;
    }
    procBoundary23to11
    {
        type            processor;
        inGroups        1(processor);
        nFaces          15;
        startFace       47350;
        matchTolerance  0.0001;
        transform       unknown;
        myProcNo        23;
        neighbProcNo    11;
    }
    procBoundary23to12
    {
        type            processor;
        inGroups        1(processor);
        nFaces          4;
        startFace       47365;
        matchTolerance  0.0001;
        transform       unknown;
        myProcNo        23;
        neighbProcNo    12;
    }
    procBoundary23to13
    {
        type            processor;
        inGroups        1(processor);
        nFaces          205;
        startFace       47369;
        matchTolerance  0.0001;
        transform       unknown;
        myProcNo        23;
        neighbProcNo    13;
    }
    procBoundary23to13throughfan01
    {
        type            processorCyclic;
        inGroups        1(processorCyclic);
        nFaces          3;
        startFace       47574;
        matchTolerance  0.0001;
        transform       unknown;
        myProcNo        23;
        neighbProcNo    13;
        referPatch      fan01;
    }
    procBoundary23to14
    {
        type            processor;
        inGroups        1(processor);
        nFaces          24;
        startFace       47577;
        matchTolerance  0.0001;
        transform       unknown;
        myProcNo        23;
        neighbProcNo    14;
    }
    procBoundary23to15
    {
        type            processor;
        inGroups        1(processor);
        nFaces          22;
        startFace       47601;
        matchTolerance  0.0001;
        transform       unknown;
        myProcNo        23;
        neighbProcNo    15;
    }
    procBoundary23to16
    {
        type            processor;
        inGroups        1(processor);
        nFaces          64;
        startFace       47623;
        matchTolerance  0.0001;
        transform       unknown;
        myProcNo        23;
        neighbProcNo    16;
    }
    procBoundary23to17
    {
        type            processor;
        inGroups        1(processor);
        nFaces          9;
        startFace       47687;
        matchTolerance  0.0001;
        transform       unknown;
        myProcNo        23;
        neighbProcNo    17;
    }
    procBoundary23to18
    {
        type            processor;
        inGroups        1(processor);
        nFaces          5;
        startFace       47696;
        matchTolerance  0.0001;
        transform       unknown;
        myProcNo        23;
        neighbProcNo    18;
    }
    procBoundary23to19
    {
        type            processor;
        inGroups        1(processor);
        nFaces          63;
        startFace       47701;
        matchTolerance  0.0001;
        transform       unknown;
        myProcNo        23;
        neighbProcNo    19;
    }
    procBoundary23to20
    {
        type            processor;
        inGroups        1(processor);
        nFaces          281;
        startFace       47764;
        matchTolerance  0.0001;
        transform       unknown;
        myProcNo        23;
        neighbProcNo    20;
    }
    procBoundary23to21
    {
        type            processor;
        inGroups        1(processor);
        nFaces          560;
        startFace       48045;
        matchTolerance  0.0001;
        transform       unknown;
        myProcNo        23;
        neighbProcNo    21;
    }
    procBoundary23to22
    {
        type            processor;
        inGroups        1(processor);
        nFaces          1197;
        startFace       48605;
        matchTolerance  0.0001;
        transform       unknown;
        myProcNo        23;
        neighbProcNo    22;
    }
    procBoundary23to22throughfan02
    {
        type            processorCyclic;
        inGroups        1(processorCyclic);
        nFaces          1;
        startFace       49802;
        matchTolerance  0.0001;
        transform       unknown;
        myProcNo        23;
        neighbProcNo    22;
        referPatch      fan02;
    }
    procBoundary23to24
    {
        type            processor;
        inGroups        1(processor);
        nFaces          10;
        startFace       49803;
        matchTolerance  0.0001;
        transform       unknown;
        myProcNo        23;
        neighbProcNo    24;
    }
    procBoundary23to25
    {
        type            processor;
        inGroups        1(processor);
        nFaces          73;
        startFace       49813;
        matchTolerance  0.0001;
        transform       unknown;
        myProcNo        23;
        neighbProcNo    25;
    }
    procBoundary23to26
    {
        type            processor;
        inGroups        1(processor);
        nFaces          4;
        startFace       49886;
        matchTolerance  0.0001;
        transform       unknown;
        myProcNo        23;
        neighbProcNo    26;
    }
    procBoundary23to27
    {
        type            processor;
        inGroups        1(processor);
        nFaces          17;
        startFace       49890;
        matchTolerance  0.0001;
        transform       unknown;
        myProcNo        23;
        neighbProcNo    27;
    }
    procBoundary23to28
    {
        type            processor;
        inGroups        1(processor);
        nFaces          23;
        startFace       49907;
        matchTolerance  0.0001;
        transform       unknown;
        myProcNo        23;
        neighbProcNo    28;
    }
    procBoundary23to29
    {
        type            processor;
        inGroups        1(processor);
        nFaces          20;
        startFace       49930;
        matchTolerance  0.0001;
        transform       unknown;
        myProcNo        23;
        neighbProcNo    29;
    }
    procBoundary23to30
    {
        type            processor;
        inGroups        1(processor);
        nFaces          11;
        startFace       49950;
        matchTolerance  0.0001;
        transform       unknown;
        myProcNo        23;
        neighbProcNo    30;
    }
    procBoundary23to31
    {
        type            processor;
        inGroups        1(processor);
        nFaces          38;
        startFace       49961;
        matchTolerance  0.0001;
        transform       unknown;
        myProcNo        23;
        neighbProcNo    31;
    }
)

// ************************************************************************* //
