/*--------------------------------*- C++ -*----------------------------------*\
| =========                 |                                                 |
| \\      /  F ield         | OpenFOAM: The Open Source CFD Toolbox           |
|  \\    /   O peration     | Version:  2.4.0                                 |
|   \\  /    A nd           | Web:      www.OpenFOAM.org                      |
|    \\/     M anipulation  |                                                 |
\*---------------------------------------------------------------------------*/
FoamFile
{
    version     2.0;
    format      ascii;
    class       polyBoundaryMesh;
    location    "0/polyMesh";
    object      boundary;
}
// * * * * * * * * * * * * * * * * * * * * * * * * * * * * * * * * * * * * * //

16
(
    plane1
    {
        type            symmetryPlane;
        inGroups        1(symmetryPlane);
        nFaces          0;
        startFace       42463;
    }
    plane2
    {
        type            symmetryPlane;
        inGroups        1(symmetryPlane);
        nFaces          0;
        startFace       42463;
    }
    outlet
    {
        type            patch;
        nFaces          0;
        startFace       42463;
    }
    inlet
    {
        type            patch;
        nFaces          0;
        startFace       42463;
    }
    wing
    {
        type            wall;
        inGroups        1(wall);
        nFaces          2205;
        startFace       42463;
    }
    fan01
    {
        type            cyclic;
        inGroups        
2
(
cyclic
cyclicFaces
)
;
        nFaces          0;
        startFace       44668;
        matchTolerance  0.0001;
        transform       unknown;
        neighbourPatch  fan02;
    }
    fan02
    {
        type            cyclic;
        inGroups        
2
(
cyclic
cyclicFaces
)
;
        nFaces          0;
        startFace       44668;
        matchTolerance  0.0001;
        transform       unknown;
        neighbourPatch  fan01;
    }
    procBoundary5to1
    {
        type            processor;
        inGroups        1(processor);
        nFaces          332;
        startFace       44668;
        matchTolerance  0.0001;
        transform       unknown;
        myProcNo        5;
        neighbProcNo    1;
    }
    procBoundary5to2
    {
        type            processor;
        inGroups        1(processor);
        nFaces          341;
        startFace       45000;
        matchTolerance  0.0001;
        transform       unknown;
        myProcNo        5;
        neighbProcNo    2;
    }
    procBoundary5to4
    {
        type            processor;
        inGroups        1(processor);
        nFaces          651;
        startFace       45341;
        matchTolerance  0.0001;
        transform       unknown;
        myProcNo        5;
        neighbProcNo    4;
    }
    procBoundary5to6
    {
        type            processor;
        inGroups        1(processor);
        nFaces          137;
        startFace       45992;
        matchTolerance  0.0001;
        transform       unknown;
        myProcNo        5;
        neighbProcNo    6;
    }
    procBoundary5to7
    {
        type            processor;
        inGroups        1(processor);
        nFaces          251;
        startFace       46129;
        matchTolerance  0.0001;
        transform       unknown;
        myProcNo        5;
        neighbProcNo    7;
    }
    procBoundary5to8
    {
        type            processor;
        inGroups        1(processor);
        nFaces          6;
        startFace       46380;
        matchTolerance  0.0001;
        transform       unknown;
        myProcNo        5;
        neighbProcNo    8;
    }
    procBoundary5to10
    {
        type            processor;
        inGroups        1(processor);
        nFaces          92;
        startFace       46386;
        matchTolerance  0.0001;
        transform       unknown;
        myProcNo        5;
        neighbProcNo    10;
    }
    procBoundary5to11
    {
        type            processor;
        inGroups        1(processor);
        nFaces          72;
        startFace       46478;
        matchTolerance  0.0001;
        transform       unknown;
        myProcNo        5;
        neighbProcNo    11;
    }
    procBoundary5to23
    {
        type            processor;
        inGroups        1(processor);
        nFaces          20;
        startFace       46550;
        matchTolerance  0.0001;
        transform       unknown;
        myProcNo        5;
        neighbProcNo    23;
    }
)

// ************************************************************************* //
