/*--------------------------------*- C++ -*----------------------------------*\
| =========                 |                                                 |
| \\      /  F ield         | OpenFOAM: The Open Source CFD Toolbox           |
|  \\    /   O peration     | Version:  2.4.0                                 |
|   \\  /    A nd           | Web:      www.OpenFOAM.org                      |
|    \\/     M anipulation  |                                                 |
\*---------------------------------------------------------------------------*/
FoamFile
{
    version     2.0;
    format      ascii;
    class       polyBoundaryMesh;
    location    "0/polyMesh";
    object      boundary;
}
// * * * * * * * * * * * * * * * * * * * * * * * * * * * * * * * * * * * * * //

14
(
    plane1
    {
        type            symmetryPlane;
        inGroups        1(symmetryPlane);
        nFaces          0;
        startFace       20943;
    }
    plane2
    {
        type            symmetryPlane;
        inGroups        1(symmetryPlane);
        nFaces          0;
        startFace       20943;
    }
    outlet
    {
        type            patch;
        nFaces          0;
        startFace       20943;
    }
    inlet
    {
        type            patch;
        nFaces          0;
        startFace       20943;
    }
    wing
    {
        type            wall;
        inGroups        1(wall);
        nFaces          1093;
        startFace       20943;
    }
    fan01
    {
        type            cyclic;
        inGroups        
2
(
cyclic
cyclicFaces
)
;
        nFaces          0;
        startFace       22036;
        matchTolerance  0.0001;
        transform       unknown;
        neighbourPatch  fan02;
    }
    fan02
    {
        type            cyclic;
        inGroups        
2
(
cyclic
cyclicFaces
)
;
        nFaces          0;
        startFace       22036;
        matchTolerance  0.0001;
        transform       unknown;
        neighbourPatch  fan01;
    }
    procBoundary20to16
    {
        type            processor;
        inGroups        1(processor);
        nFaces          58;
        startFace       22036;
        matchTolerance  0.0001;
        transform       unknown;
        myProcNo        20;
        neighbProcNo    16;
    }
    procBoundary20to18
    {
        type            processor;
        inGroups        1(processor);
        nFaces          302;
        startFace       22094;
        matchTolerance  0.0001;
        transform       unknown;
        myProcNo        20;
        neighbProcNo    18;
    }
    procBoundary20to21
    {
        type            processor;
        inGroups        1(processor);
        nFaces          335;
        startFace       22396;
        matchTolerance  0.0001;
        transform       unknown;
        myProcNo        20;
        neighbProcNo    21;
    }
    procBoundary20to23
    {
        type            processor;
        inGroups        1(processor);
        nFaces          109;
        startFace       22731;
        matchTolerance  0.0001;
        transform       unknown;
        myProcNo        20;
        neighbProcNo    23;
    }
    procBoundary20to27
    {
        type            processor;
        inGroups        1(processor);
        nFaces          258;
        startFace       22840;
        matchTolerance  0.0001;
        transform       unknown;
        myProcNo        20;
        neighbProcNo    27;
    }
    procBoundary20to31
    {
        type            processor;
        inGroups        1(processor);
        nFaces          324;
        startFace       23098;
        matchTolerance  0.0001;
        transform       unknown;
        myProcNo        20;
        neighbProcNo    31;
    }
    procBoundary20to40
    {
        type            processor;
        inGroups        1(processor);
        nFaces          23;
        startFace       23422;
        matchTolerance  0.0001;
        transform       unknown;
        myProcNo        20;
        neighbProcNo    40;
    }
)

// ************************************************************************* //
