/*--------------------------------*- C++ -*----------------------------------*\
| =========                 |                                                 |
| \\      /  F ield         | OpenFOAM: The Open Source CFD Toolbox           |
|  \\    /   O peration     | Version:  2.4.0                                 |
|   \\  /    A nd           | Web:      www.OpenFOAM.org                      |
|    \\/     M anipulation  |                                                 |
\*---------------------------------------------------------------------------*/
FoamFile
{
    version     2.0;
    format      ascii;
    class       polyBoundaryMesh;
    location    "0/polyMesh";
    object      boundary;
}
// * * * * * * * * * * * * * * * * * * * * * * * * * * * * * * * * * * * * * //

12
(
    plane1
    {
        type            symmetryPlane;
        inGroups        1(symmetryPlane);
        nFaces          0;
        startFace       20997;
    }
    plane2
    {
        type            symmetryPlane;
        inGroups        1(symmetryPlane);
        nFaces          357;
        startFace       20997;
    }
    outlet
    {
        type            patch;
        nFaces          0;
        startFace       21354;
    }
    inlet
    {
        type            patch;
        nFaces          0;
        startFace       21354;
    }
    wing
    {
        type            wall;
        inGroups        1(wall);
        nFaces          1037;
        startFace       21354;
    }
    fan01
    {
        type            cyclic;
        inGroups        
2
(
cyclic
cyclicFaces
)
;
        nFaces          0;
        startFace       22391;
        matchTolerance  0.0001;
        transform       unknown;
        neighbourPatch  fan02;
    }
    fan02
    {
        type            cyclic;
        inGroups        
2
(
cyclic
cyclicFaces
)
;
        nFaces          0;
        startFace       22391;
        matchTolerance  0.0001;
        transform       unknown;
        neighbourPatch  fan01;
    }
    procBoundary12to8
    {
        type            processor;
        inGroups        1(processor);
        nFaces          206;
        startFace       22391;
        matchTolerance  0.0001;
        transform       unknown;
        myProcNo        12;
        neighbProcNo    8;
    }
    procBoundary12to11
    {
        type            processor;
        inGroups        1(processor);
        nFaces          53;
        startFace       22597;
        matchTolerance  0.0001;
        transform       unknown;
        myProcNo        12;
        neighbProcNo    11;
    }
    procBoundary12to13
    {
        type            processor;
        inGroups        1(processor);
        nFaces          369;
        startFace       22650;
        matchTolerance  0.0001;
        transform       unknown;
        myProcNo        12;
        neighbProcNo    13;
    }
    procBoundary12to24
    {
        type            processor;
        inGroups        1(processor);
        nFaces          224;
        startFace       23019;
        matchTolerance  0.0001;
        transform       unknown;
        myProcNo        12;
        neighbProcNo    24;
    }
    procBoundary12to40
    {
        type            processor;
        inGroups        1(processor);
        nFaces          24;
        startFace       23243;
        matchTolerance  0.0001;
        transform       unknown;
        myProcNo        12;
        neighbProcNo    40;
    }
)

// ************************************************************************* //
