/*--------------------------------*- C++ -*----------------------------------*\
| =========                 |                                                 |
| \\      /  F ield         | OpenFOAM: The Open Source CFD Toolbox           |
|  \\    /   O peration     | Version:  2.4.0                                 |
|   \\  /    A nd           | Web:      www.OpenFOAM.org                      |
|    \\/     M anipulation  |                                                 |
\*---------------------------------------------------------------------------*/
FoamFile
{
    version     2.0;
    format      ascii;
    class       polyBoundaryMesh;
    location    "0/polyMesh";
    object      boundary;
}
// * * * * * * * * * * * * * * * * * * * * * * * * * * * * * * * * * * * * * //

12
(
    plane1
    {
        type            symmetryPlane;
        inGroups        1(symmetryPlane);
        nFaces          706;
        startFace       258545;
    }
    plane2
    {
        type            symmetryPlane;
        inGroups        1(symmetryPlane);
        nFaces          0;
        startFace       259251;
    }
    outlet
    {
        type            patch;
        nFaces          0;
        startFace       259251;
    }
    inlet
    {
        type            patch;
        nFaces          0;
        startFace       259251;
    }
    wing
    {
        type            wall;
        inGroups        1(wall);
        nFaces          9774;
        startFace       259251;
    }
    fan01
    {
        type            cyclic;
        inGroups        
2
(
cyclic
cyclicFaces
)
;
        nFaces          0;
        startFace       269025;
        matchTolerance  0.0001;
        transform       unknown;
        neighbourPatch  fan02;
    }
    fan02
    {
        type            cyclic;
        inGroups        
2
(
cyclic
cyclicFaces
)
;
        nFaces          0;
        startFace       269025;
        matchTolerance  0.0001;
        transform       unknown;
        neighbourPatch  fan01;
    }
    procBoundary2to0
    {
        type            processor;
        inGroups        1(processor);
        nFaces          1957;
        startFace       269025;
        matchTolerance  0.0001;
        transform       unknown;
        myProcNo        2;
        neighbProcNo    0;
    }
    procBoundary2to3
    {
        type            processor;
        inGroups        1(processor);
        nFaces          1725;
        startFace       270982;
        matchTolerance  0.0001;
        transform       unknown;
        myProcNo        2;
        neighbProcNo    3;
    }
    procBoundary2to10
    {
        type            processor;
        inGroups        1(processor);
        nFaces          15;
        startFace       272707;
        matchTolerance  0.0001;
        transform       unknown;
        myProcNo        2;
        neighbProcNo    10;
    }
    procBoundary2to14
    {
        type            processor;
        inGroups        1(processor);
        nFaces          366;
        startFace       272722;
        matchTolerance  0.0001;
        transform       unknown;
        myProcNo        2;
        neighbProcNo    14;
    }
    procBoundary2to15
    {
        type            processor;
        inGroups        1(processor);
        nFaces          722;
        startFace       273088;
        matchTolerance  0.0001;
        transform       unknown;
        myProcNo        2;
        neighbProcNo    15;
    }
)

// ************************************************************************* //
