/*--------------------------------*- C++ -*----------------------------------*\
| =========                 |                                                 |
| \\      /  F ield         | OpenFOAM: The Open Source CFD Toolbox           |
|  \\    /   O peration     | Version:  2.4.0                                 |
|   \\  /    A nd           | Web:      www.OpenFOAM.org                      |
|    \\/     M anipulation  |                                                 |
\*---------------------------------------------------------------------------*/
FoamFile
{
    version     2.0;
    format      ascii;
    class       polyBoundaryMesh;
    location    "0/polyMesh";
    object      boundary;
}
// * * * * * * * * * * * * * * * * * * * * * * * * * * * * * * * * * * * * * //

13
(
    plane1
    {
        type            symmetryPlane;
        inGroups        1(symmetryPlane);
        nFaces          0;
        startFace       255971;
    }
    plane2
    {
        type            symmetryPlane;
        inGroups        1(symmetryPlane);
        nFaces          898;
        startFace       255971;
    }
    outlet
    {
        type            patch;
        nFaces          0;
        startFace       256869;
    }
    inlet
    {
        type            patch;
        nFaces          0;
        startFace       256869;
    }
    wing
    {
        type            wall;
        inGroups        1(wall);
        nFaces          8517;
        startFace       256869;
    }
    fan01
    {
        type            cyclic;
        inGroups        
2
(
cyclic
cyclicFaces
)
;
        nFaces          0;
        startFace       265386;
        matchTolerance  0.0001;
        transform       unknown;
        neighbourPatch  fan02;
    }
    fan02
    {
        type            cyclic;
        inGroups        
2
(
cyclic
cyclicFaces
)
;
        nFaces          0;
        startFace       265386;
        matchTolerance  0.0001;
        transform       unknown;
        neighbourPatch  fan01;
    }
    procBoundary24to8
    {
        type            processor;
        inGroups        1(processor);
        nFaces          228;
        startFace       265386;
        matchTolerance  0.0001;
        transform       unknown;
        myProcNo        24;
        neighbProcNo    8;
    }
    procBoundary24to18
    {
        type            processor;
        inGroups        1(processor);
        nFaces          716;
        startFace       265614;
        matchTolerance  0.0001;
        transform       unknown;
        myProcNo        24;
        neighbProcNo    18;
    }
    procBoundary24to25
    {
        type            processor;
        inGroups        1(processor);
        nFaces          2073;
        startFace       266330;
        matchTolerance  0.0001;
        transform       unknown;
        myProcNo        24;
        neighbProcNo    25;
    }
    procBoundary24to26
    {
        type            processor;
        inGroups        1(processor);
        nFaces          2250;
        startFace       268403;
        matchTolerance  0.0001;
        transform       unknown;
        myProcNo        24;
        neighbProcNo    26;
    }
    procBoundary24to27
    {
        type            processor;
        inGroups        1(processor);
        nFaces          327;
        startFace       270653;
        matchTolerance  0.0001;
        transform       unknown;
        myProcNo        24;
        neighbProcNo    27;
    }
    procBoundary24to28
    {
        type            processor;
        inGroups        1(processor);
        nFaces          576;
        startFace       270980;
        matchTolerance  0.0001;
        transform       unknown;
        myProcNo        24;
        neighbProcNo    28;
    }
)

// ************************************************************************* //
