/*--------------------------------*- C++ -*----------------------------------*\
| =========                 |                                                 |
| \\      /  F ield         | OpenFOAM: The Open Source CFD Toolbox           |
|  \\    /   O peration     | Version:  2.4.0                                 |
|   \\  /    A nd           | Web:      www.OpenFOAM.org                      |
|    \\/     M anipulation  |                                                 |
\*---------------------------------------------------------------------------*/
FoamFile
{
    version     2.0;
    format      ascii;
    class       polyBoundaryMesh;
    location    "0/polyMesh";
    object      boundary;
}
// * * * * * * * * * * * * * * * * * * * * * * * * * * * * * * * * * * * * * //

14
(
    plane1
    {
        type            symmetryPlane;
        inGroups        1(symmetryPlane);
        nFaces          0;
        startFace       20880;
    }
    plane2
    {
        type            symmetryPlane;
        inGroups        1(symmetryPlane);
        nFaces          0;
        startFace       20880;
    }
    outlet
    {
        type            patch;
        nFaces          0;
        startFace       20880;
    }
    inlet
    {
        type            patch;
        nFaces          0;
        startFace       20880;
    }
    wing
    {
        type            wall;
        inGroups        1(wall);
        nFaces          1079;
        startFace       20880;
    }
    fan01
    {
        type            cyclic;
        inGroups        
2
(
cyclic
cyclicFaces
)
;
        nFaces          0;
        startFace       21959;
        matchTolerance  0.0001;
        transform       unknown;
        neighbourPatch  fan02;
    }
    fan02
    {
        type            cyclic;
        inGroups        
2
(
cyclic
cyclicFaces
)
;
        nFaces          0;
        startFace       21959;
        matchTolerance  0.0001;
        transform       unknown;
        neighbourPatch  fan01;
    }
    procBoundary6to4
    {
        type            processor;
        inGroups        1(processor);
        nFaces          275;
        startFace       21959;
        matchTolerance  0.0001;
        transform       unknown;
        myProcNo        6;
        neighbProcNo    4;
    }
    procBoundary6to7
    {
        type            processor;
        inGroups        1(processor);
        nFaces          325;
        startFace       22234;
        matchTolerance  0.0001;
        transform       unknown;
        myProcNo        6;
        neighbProcNo    7;
    }
    procBoundary6to14
    {
        type            processor;
        inGroups        1(processor);
        nFaces          20;
        startFace       22559;
        matchTolerance  0.0001;
        transform       unknown;
        myProcNo        6;
        neighbProcNo    14;
    }
    procBoundary6to15
    {
        type            processor;
        inGroups        1(processor);
        nFaces          395;
        startFace       22579;
        matchTolerance  0.0001;
        transform       unknown;
        myProcNo        6;
        neighbProcNo    15;
    }
    procBoundary6to28
    {
        type            processor;
        inGroups        1(processor);
        nFaces          162;
        startFace       22974;
        matchTolerance  0.0001;
        transform       unknown;
        myProcNo        6;
        neighbProcNo    28;
    }
    procBoundary6to40
    {
        type            processor;
        inGroups        1(processor);
        nFaces          5;
        startFace       23136;
        matchTolerance  0.0001;
        transform       unknown;
        myProcNo        6;
        neighbProcNo    40;
    }
    procBoundary6to42
    {
        type            processor;
        inGroups        1(processor);
        nFaces          165;
        startFace       23141;
        matchTolerance  0.0001;
        transform       unknown;
        myProcNo        6;
        neighbProcNo    42;
    }
)

// ************************************************************************* //
