/*--------------------------------*- C++ -*----------------------------------*\
| =========                 |                                                 |
| \\      /  F ield         | OpenFOAM: The Open Source CFD Toolbox           |
|  \\    /   O peration     | Version:  2.4.0                                 |
|   \\  /    A nd           | Web:      www.OpenFOAM.org                      |
|    \\/     M anipulation  |                                                 |
\*---------------------------------------------------------------------------*/
FoamFile
{
    version     2.0;
    format      ascii;
    class       polyBoundaryMesh;
    location    "0/polyMesh";
    object      boundary;
}
// * * * * * * * * * * * * * * * * * * * * * * * * * * * * * * * * * * * * * //

18
(
    plane1
    {
        type            symmetryPlane;
        inGroups        1(symmetryPlane);
        nFaces          0;
        startFace       21434;
    }
    plane2
    {
        type            symmetryPlane;
        inGroups        1(symmetryPlane);
        nFaces          0;
        startFace       21434;
    }
    outlet
    {
        type            patch;
        nFaces          0;
        startFace       21434;
    }
    inlet
    {
        type            patch;
        nFaces          0;
        startFace       21434;
    }
    wing
    {
        type            wall;
        inGroups        1(wall);
        nFaces          984;
        startFace       21434;
    }
    fan01
    {
        type            cyclic;
        inGroups        
2
(
cyclic
cyclicFaces
)
;
        nFaces          0;
        startFace       22418;
        matchTolerance  0.0001;
        transform       unknown;
        neighbourPatch  fan02;
    }
    fan02
    {
        type            cyclic;
        inGroups        
2
(
cyclic
cyclicFaces
)
;
        nFaces          0;
        startFace       22418;
        matchTolerance  0.0001;
        transform       unknown;
        neighbourPatch  fan01;
    }
    procBoundary19to0
    {
        type            processor;
        inGroups        1(processor);
        nFaces          269;
        startFace       22418;
        matchTolerance  0.0001;
        transform       unknown;
        myProcNo        19;
        neighbProcNo    0;
    }
    procBoundary19to1
    {
        type            processor;
        inGroups        1(processor);
        nFaces          204;
        startFace       22687;
        matchTolerance  0.0001;
        transform       unknown;
        myProcNo        19;
        neighbProcNo    1;
    }
    procBoundary19to3
    {
        type            processor;
        inGroups        1(processor);
        nFaces          5;
        startFace       22891;
        matchTolerance  0.0001;
        transform       unknown;
        myProcNo        19;
        neighbProcNo    3;
    }
    procBoundary19to9
    {
        type            processor;
        inGroups        1(processor);
        nFaces          63;
        startFace       22896;
        matchTolerance  0.0001;
        transform       unknown;
        myProcNo        19;
        neighbProcNo    9;
    }
    procBoundary19to10
    {
        type            processor;
        inGroups        1(processor);
        nFaces          391;
        startFace       22959;
        matchTolerance  0.0001;
        transform       unknown;
        myProcNo        19;
        neighbProcNo    10;
    }
    procBoundary19to11
    {
        type            processor;
        inGroups        1(processor);
        nFaces          4;
        startFace       23350;
        matchTolerance  0.0001;
        transform       unknown;
        myProcNo        19;
        neighbProcNo    11;
    }
    procBoundary19to17
    {
        type            processor;
        inGroups        1(processor);
        nFaces          83;
        startFace       23354;
        matchTolerance  0.0001;
        transform       unknown;
        myProcNo        19;
        neighbProcNo    17;
    }
    procBoundary19to18
    {
        type            processor;
        inGroups        1(processor);
        nFaces          230;
        startFace       23437;
        matchTolerance  0.0001;
        transform       unknown;
        myProcNo        19;
        neighbProcNo    18;
    }
    procBoundary19to21
    {
        type            processor;
        inGroups        1(processor);
        nFaces          175;
        startFace       23667;
        matchTolerance  0.0001;
        transform       unknown;
        myProcNo        19;
        neighbProcNo    21;
    }
    procBoundary19to22
    {
        type            processor;
        inGroups        1(processor);
        nFaces          32;
        startFace       23842;
        matchTolerance  0.0001;
        transform       unknown;
        myProcNo        19;
        neighbProcNo    22;
    }
    procBoundary19to40
    {
        type            processor;
        inGroups        1(processor);
        nFaces          98;
        startFace       23874;
        matchTolerance  0.0001;
        transform       unknown;
        myProcNo        19;
        neighbProcNo    40;
    }
)

// ************************************************************************* //
