/*--------------------------------*- C++ -*----------------------------------*\
| =========                 |                                                 |
| \\      /  F ield         | OpenFOAM: The Open Source CFD Toolbox           |
|  \\    /   O peration     | Version:  2.4.0                                 |
|   \\  /    A nd           | Web:      www.OpenFOAM.org                      |
|    \\/     M anipulation  |                                                 |
\*---------------------------------------------------------------------------*/
FoamFile
{
    version     2.0;
    format      ascii;
    class       polyBoundaryMesh;
    location    "0/polyMesh";
    object      boundary;
}
// * * * * * * * * * * * * * * * * * * * * * * * * * * * * * * * * * * * * * //

18
(
    plane1
    {
        type            symmetryPlane;
        inGroups        1(symmetryPlane);
        nFaces          0;
        startFace       20925;
    }
    plane2
    {
        type            symmetryPlane;
        inGroups        1(symmetryPlane);
        nFaces          0;
        startFace       20925;
    }
    outlet
    {
        type            patch;
        nFaces          0;
        startFace       20925;
    }
    inlet
    {
        type            patch;
        nFaces          0;
        startFace       20925;
    }
    wing
    {
        type            wall;
        inGroups        1(wall);
        nFaces          946;
        startFace       20925;
    }
    fan01
    {
        type            cyclic;
        inGroups        
2
(
cyclic
cyclicFaces
)
;
        nFaces          0;
        startFace       21871;
        matchTolerance  0.0001;
        transform       unknown;
        neighbourPatch  fan02;
    }
    fan02
    {
        type            cyclic;
        inGroups        
2
(
cyclic
cyclicFaces
)
;
        nFaces          0;
        startFace       21871;
        matchTolerance  0.0001;
        transform       unknown;
        neighbourPatch  fan01;
    }
    procBoundary28to6
    {
        type            processor;
        inGroups        1(processor);
        nFaces          162;
        startFace       21871;
        matchTolerance  0.0001;
        transform       unknown;
        myProcNo        28;
        neighbProcNo    6;
    }
    procBoundary28to13
    {
        type            processor;
        inGroups        1(processor);
        nFaces          9;
        startFace       22033;
        matchTolerance  0.0001;
        transform       unknown;
        myProcNo        28;
        neighbProcNo    13;
    }
    procBoundary28to15
    {
        type            processor;
        inGroups        1(processor);
        nFaces          394;
        startFace       22042;
        matchTolerance  0.0001;
        transform       unknown;
        myProcNo        28;
        neighbProcNo    15;
    }
    procBoundary28to25
    {
        type            processor;
        inGroups        1(processor);
        nFaces          189;
        startFace       22436;
        matchTolerance  0.0001;
        transform       unknown;
        myProcNo        28;
        neighbProcNo    25;
    }
    procBoundary28to29
    {
        type            processor;
        inGroups        1(processor);
        nFaces          355;
        startFace       22625;
        matchTolerance  0.0001;
        transform       unknown;
        myProcNo        28;
        neighbProcNo    29;
    }
    procBoundary28to30
    {
        type            processor;
        inGroups        1(processor);
        nFaces          272;
        startFace       22980;
        matchTolerance  0.0001;
        transform       unknown;
        myProcNo        28;
        neighbProcNo    30;
    }
    procBoundary28to40
    {
        type            processor;
        inGroups        1(processor);
        nFaces          97;
        startFace       23252;
        matchTolerance  0.0001;
        transform       unknown;
        myProcNo        28;
        neighbProcNo    40;
    }
    procBoundary28to41
    {
        type            processor;
        inGroups        1(processor);
        nFaces          117;
        startFace       23349;
        matchTolerance  0.0001;
        transform       unknown;
        myProcNo        28;
        neighbProcNo    41;
    }
    procBoundary28to42
    {
        type            processor;
        inGroups        1(processor);
        nFaces          188;
        startFace       23466;
        matchTolerance  0.0001;
        transform       unknown;
        myProcNo        28;
        neighbProcNo    42;
    }
    procBoundary28to46
    {
        type            processor;
        inGroups        1(processor);
        nFaces          55;
        startFace       23654;
        matchTolerance  0.0001;
        transform       unknown;
        myProcNo        28;
        neighbProcNo    46;
    }
    procBoundary28to47
    {
        type            processor;
        inGroups        1(processor);
        nFaces          71;
        startFace       23709;
        matchTolerance  0.0001;
        transform       unknown;
        myProcNo        28;
        neighbProcNo    47;
    }
)

// ************************************************************************* //
