/*--------------------------------*- C++ -*----------------------------------*\
| =========                 |                                                 |
| \\      /  F ield         | OpenFOAM: The Open Source CFD Toolbox           |
|  \\    /   O peration     | Version:  2.4.0                                 |
|   \\  /    A nd           | Web:      www.OpenFOAM.org                      |
|    \\/     M anipulation  |                                                 |
\*---------------------------------------------------------------------------*/
FoamFile
{
    version     2.0;
    format      ascii;
    class       polyBoundaryMesh;
    location    "0/polyMesh";
    object      boundary;
}
// * * * * * * * * * * * * * * * * * * * * * * * * * * * * * * * * * * * * * //

16
(
    plane1
    {
        type            symmetryPlane;
        inGroups        1(symmetryPlane);
        nFaces          526;
        startFace       85108;
    }
    plane2
    {
        type            symmetryPlane;
        inGroups        1(symmetryPlane);
        nFaces          130;
        startFace       85634;
    }
    outlet
    {
        type            patch;
        nFaces          34;
        startFace       85764;
    }
    inlet
    {
        type            patch;
        nFaces          0;
        startFace       85798;
    }
    wing
    {
        type            wall;
        inGroups        1(wall);
        nFaces          4236;
        startFace       85798;
    }
    fan01
    {
        type            cyclic;
        inGroups        
2
(
cyclic
cyclicFaces
)
;
        nFaces          0;
        startFace       90034;
        matchTolerance  0.0001;
        transform       unknown;
        neighbourPatch  fan02;
    }
    fan02
    {
        type            cyclic;
        inGroups        
2
(
cyclic
cyclicFaces
)
;
        nFaces          0;
        startFace       90034;
        matchTolerance  0.0001;
        transform       unknown;
        neighbourPatch  fan01;
    }
    procBoundary14to2
    {
        type            processor;
        inGroups        1(processor);
        nFaces          296;
        startFace       90034;
        matchTolerance  0.0001;
        transform       unknown;
        myProcNo        14;
        neighbProcNo    2;
    }
    procBoundary14to3
    {
        type            processor;
        inGroups        1(processor);
        nFaces          55;
        startFace       90330;
        matchTolerance  0.0001;
        transform       unknown;
        myProcNo        14;
        neighbProcNo    3;
    }
    procBoundary14to4
    {
        type            processor;
        inGroups        1(processor);
        nFaces          6;
        startFace       90385;
        matchTolerance  0.0001;
        transform       unknown;
        myProcNo        14;
        neighbProcNo    4;
    }
    procBoundary14to5
    {
        type            processor;
        inGroups        1(processor);
        nFaces          299;
        startFace       90391;
        matchTolerance  0.0001;
        transform       unknown;
        myProcNo        14;
        neighbProcNo    5;
    }
    procBoundary14to8
    {
        type            processor;
        inGroups        1(processor);
        nFaces          29;
        startFace       90690;
        matchTolerance  0.0001;
        transform       unknown;
        myProcNo        14;
        neighbProcNo    8;
    }
    procBoundary14to10
    {
        type            processor;
        inGroups        1(processor);
        nFaces          265;
        startFace       90719;
        matchTolerance  0.0001;
        transform       unknown;
        myProcNo        14;
        neighbProcNo    10;
    }
    procBoundary14to12
    {
        type            processor;
        inGroups        1(processor);
        nFaces          519;
        startFace       90984;
        matchTolerance  0.0001;
        transform       unknown;
        myProcNo        14;
        neighbProcNo    12;
    }
    procBoundary14to13
    {
        type            processor;
        inGroups        1(processor);
        nFaces          519;
        startFace       91503;
        matchTolerance  0.0001;
        transform       unknown;
        myProcNo        14;
        neighbProcNo    13;
    }
    procBoundary14to15
    {
        type            processor;
        inGroups        1(processor);
        nFaces          848;
        startFace       92022;
        matchTolerance  0.0001;
        transform       unknown;
        myProcNo        14;
        neighbProcNo    15;
    }
)

// ************************************************************************* //
