/*--------------------------------*- C++ -*----------------------------------*\
| =========                 |                                                 |
| \\      /  F ield         | OpenFOAM: The Open Source CFD Toolbox           |
|  \\    /   O peration     | Version:  2.4.0                                 |
|   \\  /    A nd           | Web:      www.OpenFOAM.org                      |
|    \\/     M anipulation  |                                                 |
\*---------------------------------------------------------------------------*/
FoamFile
{
    version     2.0;
    format      ascii;
    class       polyBoundaryMesh;
    location    "0/polyMesh";
    object      boundary;
}
// * * * * * * * * * * * * * * * * * * * * * * * * * * * * * * * * * * * * * //

15
(
    plane1
    {
        type            symmetryPlane;
        inGroups        1(symmetryPlane);
        nFaces          0;
        startFace       42528;
    }
    plane2
    {
        type            symmetryPlane;
        inGroups        1(symmetryPlane);
        nFaces          0;
        startFace       42528;
    }
    outlet
    {
        type            patch;
        nFaces          0;
        startFace       42528;
    }
    inlet
    {
        type            patch;
        nFaces          0;
        startFace       42528;
    }
    wing
    {
        type            wall;
        inGroups        1(wall);
        nFaces          2205;
        startFace       42528;
    }
    fan01
    {
        type            cyclic;
        inGroups        
2
(
cyclic
cyclicFaces
)
;
        nFaces          0;
        startFace       44733;
        matchTolerance  0.0001;
        transform       unknown;
        neighbourPatch  fan02;
    }
    fan02
    {
        type            cyclic;
        inGroups        
2
(
cyclic
cyclicFaces
)
;
        nFaces          0;
        startFace       44733;
        matchTolerance  0.0001;
        transform       unknown;
        neighbourPatch  fan01;
    }
    procBoundary2to0
    {
        type            processor;
        inGroups        1(processor);
        nFaces          140;
        startFace       44733;
        matchTolerance  0.0001;
        transform       unknown;
        myProcNo        2;
        neighbProcNo    0;
    }
    procBoundary2to1
    {
        type            processor;
        inGroups        1(processor);
        nFaces          476;
        startFace       44873;
        matchTolerance  0.0001;
        transform       unknown;
        myProcNo        2;
        neighbProcNo    1;
    }
    procBoundary2to3
    {
        type            processor;
        inGroups        1(processor);
        nFaces          591;
        startFace       45349;
        matchTolerance  0.0001;
        transform       unknown;
        myProcNo        2;
        neighbProcNo    3;
    }
    procBoundary2to4
    {
        type            processor;
        inGroups        1(processor);
        nFaces          6;
        startFace       45940;
        matchTolerance  0.0001;
        transform       unknown;
        myProcNo        2;
        neighbProcNo    4;
    }
    procBoundary2to5
    {
        type            processor;
        inGroups        1(processor);
        nFaces          341;
        startFace       45946;
        matchTolerance  0.0001;
        transform       unknown;
        myProcNo        2;
        neighbProcNo    5;
    }
    procBoundary2to6
    {
        type            processor;
        inGroups        1(processor);
        nFaces          448;
        startFace       46287;
        matchTolerance  0.0001;
        transform       unknown;
        myProcNo        2;
        neighbProcNo    6;
    }
    procBoundary2to7
    {
        type            processor;
        inGroups        1(processor);
        nFaces          17;
        startFace       46735;
        matchTolerance  0.0001;
        transform       unknown;
        myProcNo        2;
        neighbProcNo    7;
    }
    procBoundary2to23
    {
        type            processor;
        inGroups        1(processor);
        nFaces          10;
        startFace       46752;
        matchTolerance  0.0001;
        transform       unknown;
        myProcNo        2;
        neighbProcNo    23;
    }
)

// ************************************************************************* //
