/*--------------------------------*- C++ -*----------------------------------*\
| =========                 |                                                 |
| \\      /  F ield         | OpenFOAM: The Open Source CFD Toolbox           |
|  \\    /   O peration     | Version:  2.4.0                                 |
|   \\  /    A nd           | Web:      www.OpenFOAM.org                      |
|    \\/     M anipulation  |                                                 |
\*---------------------------------------------------------------------------*/
FoamFile
{
    version     2.0;
    format      ascii;
    class       polyBoundaryMesh;
    location    "0/polyMesh";
    object      boundary;
}
// * * * * * * * * * * * * * * * * * * * * * * * * * * * * * * * * * * * * * //

20
(
    plane1
    {
        type            symmetryPlane;
        inGroups        1(symmetryPlane);
        nFaces          1018;
        startFace       530763;
    }
    plane2
    {
        type            symmetryPlane;
        inGroups        1(symmetryPlane);
        nFaces          807;
        startFace       531781;
    }
    outlet
    {
        type            patch;
        nFaces          64;
        startFace       532588;
    }
    inlet
    {
        type            patch;
        nFaces          64;
        startFace       532652;
    }
    wing
    {
        type            wall;
        inGroups        1(wall);
        nFaces          6814;
        startFace       532716;
    }
    fan01
    {
        type            cyclic;
        inGroups        
2
(
cyclic
cyclicFaces
)
;
        nFaces          6077;
        startFace       539530;
        matchTolerance  0.0001;
        transform       unknown;
        neighbourPatch  fan02;
    }
    fan02
    {
        type            cyclic;
        inGroups        
2
(
cyclic
cyclicFaces
)
;
        nFaces          6077;
        startFace       545607;
        matchTolerance  0.0001;
        transform       unknown;
        neighbourPatch  fan01;
    }
    procBoundary2to0
    {
        type            processor;
        inGroups        1(processor);
        nFaces          1374;
        startFace       551684;
        matchTolerance  0.0001;
        transform       unknown;
        myProcNo        2;
        neighbProcNo    0;
    }
    procBoundary2to1
    {
        type            processor;
        inGroups        1(processor);
        nFaces          701;
        startFace       553058;
        matchTolerance  0.0001;
        transform       unknown;
        myProcNo        2;
        neighbProcNo    1;
    }
    procBoundary2to3
    {
        type            processor;
        inGroups        1(processor);
        nFaces          5105;
        startFace       553759;
        matchTolerance  0.0001;
        transform       unknown;
        myProcNo        2;
        neighbProcNo    3;
    }
    procBoundary2to4
    {
        type            processor;
        inGroups        1(processor);
        nFaces          36;
        startFace       558864;
        matchTolerance  0.0001;
        transform       unknown;
        myProcNo        2;
        neighbProcNo    4;
    }
    procBoundary2to5
    {
        type            processor;
        inGroups        1(processor);
        nFaces          69;
        startFace       558900;
        matchTolerance  0.0001;
        transform       unknown;
        myProcNo        2;
        neighbProcNo    5;
    }
    procBoundary2to6
    {
        type            processor;
        inGroups        1(processor);
        nFaces          245;
        startFace       558969;
        matchTolerance  0.0001;
        transform       unknown;
        myProcNo        2;
        neighbProcNo    6;
    }
    procBoundary2to7
    {
        type            processor;
        inGroups        1(processor);
        nFaces          16;
        startFace       559214;
        matchTolerance  0.0001;
        transform       unknown;
        myProcNo        2;
        neighbProcNo    7;
    }
    procBoundary2to8
    {
        type            processor;
        inGroups        1(processor);
        nFaces          16;
        startFace       559230;
        matchTolerance  0.0001;
        transform       unknown;
        myProcNo        2;
        neighbProcNo    8;
    }
    procBoundary2to9
    {
        type            processor;
        inGroups        1(processor);
        nFaces          28;
        startFace       559246;
        matchTolerance  0.0001;
        transform       unknown;
        myProcNo        2;
        neighbProcNo    9;
    }
    procBoundary2to11
    {
        type            processor;
        inGroups        1(processor);
        nFaces          34;
        startFace       559274;
        matchTolerance  0.0001;
        transform       unknown;
        myProcNo        2;
        neighbProcNo    11;
    }
    procBoundary2to12
    {
        type            processor;
        inGroups        1(processor);
        nFaces          21;
        startFace       559308;
        matchTolerance  0.0001;
        transform       unknown;
        myProcNo        2;
        neighbProcNo    12;
    }
    procBoundary2to13
    {
        type            processor;
        inGroups        1(processor);
        nFaces          201;
        startFace       559329;
        matchTolerance  0.0001;
        transform       unknown;
        myProcNo        2;
        neighbProcNo    13;
    }
    procBoundary2to14
    {
        type            processor;
        inGroups        1(processor);
        nFaces          21;
        startFace       559530;
        matchTolerance  0.0001;
        transform       unknown;
        myProcNo        2;
        neighbProcNo    14;
    }
)

// ************************************************************************* //
