/*--------------------------------*- C++ -*----------------------------------*\
| =========                 |                                                 |
| \\      /  F ield         | OpenFOAM: The Open Source CFD Toolbox           |
|  \\    /   O peration     | Version:  2.4.0                                 |
|   \\  /    A nd           | Web:      www.OpenFOAM.org                      |
|    \\/     M anipulation  |                                                 |
\*---------------------------------------------------------------------------*/
FoamFile
{
    version     2.0;
    format      ascii;
    class       polyBoundaryMesh;
    location    "0/polyMesh";
    object      boundary;
}
// * * * * * * * * * * * * * * * * * * * * * * * * * * * * * * * * * * * * * //

16
(
    plane1
    {
        type            symmetryPlane;
        inGroups        1(symmetryPlane);
        nFaces          0;
        startFace       42377;
    }
    plane2
    {
        type            symmetryPlane;
        inGroups        1(symmetryPlane);
        nFaces          0;
        startFace       42377;
    }
    outlet
    {
        type            patch;
        nFaces          0;
        startFace       42377;
    }
    inlet
    {
        type            patch;
        nFaces          0;
        startFace       42377;
    }
    wing
    {
        type            wall;
        inGroups        1(wall);
        nFaces          2335;
        startFace       42377;
    }
    fan01
    {
        type            cyclic;
        inGroups        
2
(
cyclic
cyclicFaces
)
;
        nFaces          0;
        startFace       44712;
        matchTolerance  0.0001;
        transform       unknown;
        neighbourPatch  fan02;
    }
    fan02
    {
        type            cyclic;
        inGroups        
2
(
cyclic
cyclicFaces
)
;
        nFaces          0;
        startFace       44712;
        matchTolerance  0.0001;
        transform       unknown;
        neighbourPatch  fan01;
    }
    procBoundary14to8
    {
        type            processor;
        inGroups        1(processor);
        nFaces          4;
        startFace       44712;
        matchTolerance  0.0001;
        transform       unknown;
        myProcNo        14;
        neighbProcNo    8;
    }
    procBoundary14to9
    {
        type            processor;
        inGroups        1(processor);
        nFaces          241;
        startFace       44716;
        matchTolerance  0.0001;
        transform       unknown;
        myProcNo        14;
        neighbProcNo    9;
    }
    procBoundary14to10
    {
        type            processor;
        inGroups        1(processor);
        nFaces          280;
        startFace       44957;
        matchTolerance  0.0001;
        transform       unknown;
        myProcNo        14;
        neighbProcNo    10;
    }
    procBoundary14to11
    {
        type            processor;
        inGroups        1(processor);
        nFaces          3;
        startFace       45237;
        matchTolerance  0.0001;
        transform       unknown;
        myProcNo        14;
        neighbProcNo    11;
    }
    procBoundary14to12
    {
        type            processor;
        inGroups        1(processor);
        nFaces          473;
        startFace       45240;
        matchTolerance  0.0001;
        transform       unknown;
        myProcNo        14;
        neighbProcNo    12;
    }
    procBoundary14to13
    {
        type            processor;
        inGroups        1(processor);
        nFaces          221;
        startFace       45713;
        matchTolerance  0.0001;
        transform       unknown;
        myProcNo        14;
        neighbProcNo    13;
    }
    procBoundary14to15
    {
        type            processor;
        inGroups        1(processor);
        nFaces          570;
        startFace       45934;
        matchTolerance  0.0001;
        transform       unknown;
        myProcNo        14;
        neighbProcNo    15;
    }
    procBoundary14to21
    {
        type            processor;
        inGroups        1(processor);
        nFaces          8;
        startFace       46504;
        matchTolerance  0.0001;
        transform       unknown;
        myProcNo        14;
        neighbProcNo    21;
    }
    procBoundary14to23
    {
        type            processor;
        inGroups        1(processor);
        nFaces          24;
        startFace       46512;
        matchTolerance  0.0001;
        transform       unknown;
        myProcNo        14;
        neighbProcNo    23;
    }
)

// ************************************************************************* //
