/*--------------------------------*- C++ -*----------------------------------*\
| =========                 |                                                 |
| \\      /  F ield         | OpenFOAM: The Open Source CFD Toolbox           |
|  \\    /   O peration     | Version:  2.4.0                                 |
|   \\  /    A nd           | Web:      www.OpenFOAM.org                      |
|    \\/     M anipulation  |                                                 |
\*---------------------------------------------------------------------------*/
FoamFile
{
    version     2.0;
    format      ascii;
    class       polyBoundaryMesh;
    location    "0/polyMesh";
    object      boundary;
}
// * * * * * * * * * * * * * * * * * * * * * * * * * * * * * * * * * * * * * //

13
(
    plane1
    {
        type            symmetryPlane;
        inGroups        1(symmetryPlane);
        nFaces          914;
        startFace       256073;
    }
    plane2
    {
        type            symmetryPlane;
        inGroups        1(symmetryPlane);
        nFaces          0;
        startFace       256987;
    }
    outlet
    {
        type            patch;
        nFaces          0;
        startFace       256987;
    }
    inlet
    {
        type            patch;
        nFaces          0;
        startFace       256987;
    }
    wing
    {
        type            wall;
        inGroups        1(wall);
        nFaces          8977;
        startFace       256987;
    }
    fan01
    {
        type            cyclic;
        inGroups        
2
(
cyclic
cyclicFaces
)
;
        nFaces          0;
        startFace       265964;
        matchTolerance  0.0001;
        transform       unknown;
        neighbourPatch  fan02;
    }
    fan02
    {
        type            cyclic;
        inGroups        
2
(
cyclic
cyclicFaces
)
;
        nFaces          0;
        startFace       265964;
        matchTolerance  0.0001;
        transform       unknown;
        neighbourPatch  fan01;
    }
    procBoundary1to0
    {
        type            processor;
        inGroups        1(processor);
        nFaces          1796;
        startFace       265964;
        matchTolerance  0.0001;
        transform       unknown;
        myProcNo        1;
        neighbProcNo    0;
    }
    procBoundary1to6
    {
        type            processor;
        inGroups        1(processor);
        nFaces          1011;
        startFace       267760;
        matchTolerance  0.0001;
        transform       unknown;
        myProcNo        1;
        neighbProcNo    6;
    }
    procBoundary1to7
    {
        type            processor;
        inGroups        1(processor);
        nFaces          572;
        startFace       268771;
        matchTolerance  0.0001;
        transform       unknown;
        myProcNo        1;
        neighbProcNo    7;
    }
    procBoundary1to10
    {
        type            processor;
        inGroups        1(processor);
        nFaces          48;
        startFace       269343;
        matchTolerance  0.0001;
        transform       unknown;
        myProcNo        1;
        neighbProcNo    10;
    }
    procBoundary1to22
    {
        type            processor;
        inGroups        1(processor);
        nFaces          35;
        startFace       269391;
        matchTolerance  0.0001;
        transform       unknown;
        myProcNo        1;
        neighbProcNo    22;
    }
    procBoundary1to23
    {
        type            processor;
        inGroups        1(processor);
        nFaces          779;
        startFace       269426;
        matchTolerance  0.0001;
        transform       unknown;
        myProcNo        1;
        neighbProcNo    23;
    }
)

// ************************************************************************* //
