/*--------------------------------*- C++ -*----------------------------------*\
| =========                 |                                                 |
| \\      /  F ield         | OpenFOAM: The Open Source CFD Toolbox           |
|  \\    /   O peration     | Version:  2.4.0                                 |
|   \\  /    A nd           | Web:      www.OpenFOAM.org                      |
|    \\/     M anipulation  |                                                 |
\*---------------------------------------------------------------------------*/
FoamFile
{
    version     2.0;
    format      ascii;
    class       polyBoundaryMesh;
    location    "0/polyMesh";
    object      boundary;
}
// * * * * * * * * * * * * * * * * * * * * * * * * * * * * * * * * * * * * * //

12
(
    plane1
    {
        type            symmetryPlane;
        inGroups        1(symmetryPlane);
        nFaces          0;
        startFace       42209;
    }
    plane2
    {
        type            symmetryPlane;
        inGroups        1(symmetryPlane);
        nFaces          324;
        startFace       42209;
    }
    outlet
    {
        type            patch;
        nFaces          0;
        startFace       42533;
    }
    inlet
    {
        type            patch;
        nFaces          0;
        startFace       42533;
    }
    wing
    {
        type            wall;
        inGroups        1(wall);
        nFaces          2347;
        startFace       42533;
    }
    fan01
    {
        type            cyclic;
        inGroups        
2
(
cyclic
cyclicFaces
)
;
        nFaces          0;
        startFace       44880;
        matchTolerance  0.0001;
        transform       unknown;
        neighbourPatch  fan02;
    }
    fan02
    {
        type            cyclic;
        inGroups        
2
(
cyclic
cyclicFaces
)
;
        nFaces          0;
        startFace       44880;
        matchTolerance  0.0001;
        transform       unknown;
        neighbourPatch  fan01;
    }
    procBoundary12to10
    {
        type            processor;
        inGroups        1(processor);
        nFaces          99;
        startFace       44880;
        matchTolerance  0.0001;
        transform       unknown;
        myProcNo        12;
        neighbProcNo    10;
    }
    procBoundary12to11
    {
        type            processor;
        inGroups        1(processor);
        nFaces          378;
        startFace       44979;
        matchTolerance  0.0001;
        transform       unknown;
        myProcNo        12;
        neighbProcNo    11;
    }
    procBoundary12to13
    {
        type            processor;
        inGroups        1(processor);
        nFaces          426;
        startFace       45357;
        matchTolerance  0.0001;
        transform       unknown;
        myProcNo        12;
        neighbProcNo    13;
    }
    procBoundary12to14
    {
        type            processor;
        inGroups        1(processor);
        nFaces          473;
        startFace       45783;
        matchTolerance  0.0001;
        transform       unknown;
        myProcNo        12;
        neighbProcNo    14;
    }
    procBoundary12to23
    {
        type            processor;
        inGroups        1(processor);
        nFaces          4;
        startFace       46256;
        matchTolerance  0.0001;
        transform       unknown;
        myProcNo        12;
        neighbProcNo    23;
    }
)

// ************************************************************************* //
