/*--------------------------------*- C++ -*----------------------------------*\
| =========                 |                                                 |
| \\      /  F ield         | OpenFOAM: The Open Source CFD Toolbox           |
|  \\    /   O peration     | Version:  2.4.0                                 |
|   \\  /    A nd           | Web:      www.OpenFOAM.org                      |
|    \\/     M anipulation  |                                                 |
\*---------------------------------------------------------------------------*/
FoamFile
{
    version     2.0;
    format      ascii;
    class       polyBoundaryMesh;
    location    "0/polyMesh";
    object      boundary;
}
// * * * * * * * * * * * * * * * * * * * * * * * * * * * * * * * * * * * * * //

12
(
    plane1
    {
        type            symmetryPlane;
        inGroups        1(symmetryPlane);
        nFaces          365;
        startFace       21106;
    }
    plane2
    {
        type            symmetryPlane;
        inGroups        1(symmetryPlane);
        nFaces          0;
        startFace       21471;
    }
    outlet
    {
        type            patch;
        nFaces          0;
        startFace       21471;
    }
    inlet
    {
        type            patch;
        nFaces          0;
        startFace       21471;
    }
    wing
    {
        type            wall;
        inGroups        1(wall);
        nFaces          1114;
        startFace       21471;
    }
    fan01
    {
        type            cyclic;
        inGroups        
2
(
cyclic
cyclicFaces
)
;
        nFaces          0;
        startFace       22585;
        matchTolerance  0.0001;
        transform       unknown;
        neighbourPatch  fan02;
    }
    fan02
    {
        type            cyclic;
        inGroups        
2
(
cyclic
cyclicFaces
)
;
        nFaces          0;
        startFace       22585;
        matchTolerance  0.0001;
        transform       unknown;
        neighbourPatch  fan01;
    }
    procBoundary48to36
    {
        type            processor;
        inGroups        1(processor);
        nFaces          8;
        startFace       22585;
        matchTolerance  0.0001;
        transform       unknown;
        myProcNo        48;
        neighbProcNo    36;
    }
    procBoundary48to40
    {
        type            processor;
        inGroups        1(processor);
        nFaces          2;
        startFace       22593;
        matchTolerance  0.0001;
        transform       unknown;
        myProcNo        48;
        neighbProcNo    40;
    }
    procBoundary48to49
    {
        type            processor;
        inGroups        1(processor);
        nFaces          244;
        startFace       22595;
        matchTolerance  0.0001;
        transform       unknown;
        myProcNo        48;
        neighbProcNo    49;
    }
    procBoundary48to51
    {
        type            processor;
        inGroups        1(processor);
        nFaces          456;
        startFace       22839;
        matchTolerance  0.0001;
        transform       unknown;
        myProcNo        48;
        neighbProcNo    51;
    }
    procBoundary48to54
    {
        type            processor;
        inGroups        1(processor);
        nFaces          178;
        startFace       23295;
        matchTolerance  0.0001;
        transform       unknown;
        myProcNo        48;
        neighbProcNo    54;
    }
)

// ************************************************************************* //
