/*--------------------------------*- C++ -*----------------------------------*\
| =========                 |                                                 |
| \\      /  F ield         | OpenFOAM: The Open Source CFD Toolbox           |
|  \\    /   O peration     | Version:  2.4.0                                 |
|   \\  /    A nd           | Web:      www.OpenFOAM.org                      |
|    \\/     M anipulation  |                                                 |
\*---------------------------------------------------------------------------*/
FoamFile
{
    version     2.0;
    format      ascii;
    class       polyBoundaryMesh;
    location    "0/polyMesh";
    object      boundary;
}
// * * * * * * * * * * * * * * * * * * * * * * * * * * * * * * * * * * * * * //

15
(
    plane1
    {
        type            symmetryPlane;
        inGroups        1(symmetryPlane);
        nFaces          0;
        startFace       21169;
    }
    plane2
    {
        type            symmetryPlane;
        inGroups        1(symmetryPlane);
        nFaces          0;
        startFace       21169;
    }
    outlet
    {
        type            patch;
        nFaces          0;
        startFace       21169;
    }
    inlet
    {
        type            patch;
        nFaces          0;
        startFace       21169;
    }
    wing
    {
        type            wall;
        inGroups        1(wall);
        nFaces          1097;
        startFace       21169;
    }
    fan01
    {
        type            cyclic;
        inGroups        
2
(
cyclic
cyclicFaces
)
;
        nFaces          0;
        startFace       22266;
        matchTolerance  0.0001;
        transform       unknown;
        neighbourPatch  fan02;
    }
    fan02
    {
        type            cyclic;
        inGroups        
2
(
cyclic
cyclicFaces
)
;
        nFaces          0;
        startFace       22266;
        matchTolerance  0.0001;
        transform       unknown;
        neighbourPatch  fan01;
    }
    procBoundary4to0
    {
        type            processor;
        inGroups        1(processor);
        nFaces          156;
        startFace       22266;
        matchTolerance  0.0001;
        transform       unknown;
        myProcNo        4;
        neighbProcNo    0;
    }
    procBoundary4to1
    {
        type            processor;
        inGroups        1(processor);
        nFaces          293;
        startFace       22422;
        matchTolerance  0.0001;
        transform       unknown;
        myProcNo        4;
        neighbProcNo    1;
    }
    procBoundary4to5
    {
        type            processor;
        inGroups        1(processor);
        nFaces          273;
        startFace       22715;
        matchTolerance  0.0001;
        transform       unknown;
        myProcNo        4;
        neighbProcNo    5;
    }
    procBoundary4to6
    {
        type            processor;
        inGroups        1(processor);
        nFaces          275;
        startFace       22988;
        matchTolerance  0.0001;
        transform       unknown;
        myProcNo        4;
        neighbProcNo    6;
    }
    procBoundary4to7
    {
        type            processor;
        inGroups        1(processor);
        nFaces          116;
        startFace       23263;
        matchTolerance  0.0001;
        transform       unknown;
        myProcNo        4;
        neighbProcNo    7;
    }
    procBoundary4to14
    {
        type            processor;
        inGroups        1(processor);
        nFaces          172;
        startFace       23379;
        matchTolerance  0.0001;
        transform       unknown;
        myProcNo        4;
        neighbProcNo    14;
    }
    procBoundary4to15
    {
        type            processor;
        inGroups        1(processor);
        nFaces          20;
        startFace       23551;
        matchTolerance  0.0001;
        transform       unknown;
        myProcNo        4;
        neighbProcNo    15;
    }
    procBoundary4to40
    {
        type            processor;
        inGroups        1(processor);
        nFaces          33;
        startFace       23571;
        matchTolerance  0.0001;
        transform       unknown;
        myProcNo        4;
        neighbProcNo    40;
    }
)

// ************************************************************************* //
