/*--------------------------------*- C++ -*----------------------------------*\
| =========                 |                                                 |
| \\      /  F ield         | OpenFOAM: The Open Source CFD Toolbox           |
|  \\    /   O peration     | Version:  2.4.0                                 |
|   \\  /    A nd           | Web:      www.OpenFOAM.org                      |
|    \\/     M anipulation  |                                                 |
\*---------------------------------------------------------------------------*/
FoamFile
{
    version     2.0;
    format      ascii;
    class       polyBoundaryMesh;
    location    "0/polyMesh";
    object      boundary;
}
// * * * * * * * * * * * * * * * * * * * * * * * * * * * * * * * * * * * * * //

15
(
    plane1
    {
        type            symmetryPlane;
        inGroups        1(symmetryPlane);
        nFaces          0;
        startFace       21075;
    }
    plane2
    {
        type            symmetryPlane;
        inGroups        1(symmetryPlane);
        nFaces          0;
        startFace       21075;
    }
    outlet
    {
        type            patch;
        nFaces          0;
        startFace       21075;
    }
    inlet
    {
        type            patch;
        nFaces          0;
        startFace       21075;
    }
    wing
    {
        type            wall;
        inGroups        1(wall);
        nFaces          1058;
        startFace       21075;
    }
    fan01
    {
        type            cyclic;
        inGroups        
2
(
cyclic
cyclicFaces
)
;
        nFaces          0;
        startFace       22133;
        matchTolerance  0.0001;
        transform       unknown;
        neighbourPatch  fan02;
    }
    fan02
    {
        type            cyclic;
        inGroups        
2
(
cyclic
cyclicFaces
)
;
        nFaces          0;
        startFace       22133;
        matchTolerance  0.0001;
        transform       unknown;
        neighbourPatch  fan01;
    }
    procBoundary13to11
    {
        type            processor;
        inGroups        1(processor);
        nFaces          155;
        startFace       22133;
        matchTolerance  0.0001;
        transform       unknown;
        myProcNo        13;
        neighbProcNo    11;
    }
    procBoundary13to12
    {
        type            processor;
        inGroups        1(processor);
        nFaces          369;
        startFace       22288;
        matchTolerance  0.0001;
        transform       unknown;
        myProcNo        13;
        neighbProcNo    12;
    }
    procBoundary13to14
    {
        type            processor;
        inGroups        1(processor);
        nFaces          232;
        startFace       22657;
        matchTolerance  0.0001;
        transform       unknown;
        myProcNo        13;
        neighbProcNo    14;
    }
    procBoundary13to15
    {
        type            processor;
        inGroups        1(processor);
        nFaces          225;
        startFace       22889;
        matchTolerance  0.0001;
        transform       unknown;
        myProcNo        13;
        neighbProcNo    15;
    }
    procBoundary13to24
    {
        type            processor;
        inGroups        1(processor);
        nFaces          97;
        startFace       23114;
        matchTolerance  0.0001;
        transform       unknown;
        myProcNo        13;
        neighbProcNo    24;
    }
    procBoundary13to25
    {
        type            processor;
        inGroups        1(processor);
        nFaces          213;
        startFace       23211;
        matchTolerance  0.0001;
        transform       unknown;
        myProcNo        13;
        neighbProcNo    25;
    }
    procBoundary13to28
    {
        type            processor;
        inGroups        1(processor);
        nFaces          9;
        startFace       23424;
        matchTolerance  0.0001;
        transform       unknown;
        myProcNo        13;
        neighbProcNo    28;
    }
    procBoundary13to40
    {
        type            processor;
        inGroups        1(processor);
        nFaces          44;
        startFace       23433;
        matchTolerance  0.0001;
        transform       unknown;
        myProcNo        13;
        neighbProcNo    40;
    }
)

// ************************************************************************* //
