/*--------------------------------*- C++ -*----------------------------------*\
| =========                 |                                                 |
| \\      /  F ield         | OpenFOAM: The Open Source CFD Toolbox           |
|  \\    /   O peration     | Version:  2.4.0                                 |
|   \\  /    A nd           | Web:      www.OpenFOAM.org                      |
|    \\/     M anipulation  |                                                 |
\*---------------------------------------------------------------------------*/
FoamFile
{
    version     2.0;
    format      ascii;
    class       polyBoundaryMesh;
    location    "0/polyMesh";
    object      boundary;
}
// * * * * * * * * * * * * * * * * * * * * * * * * * * * * * * * * * * * * * //

13
(
    plane1
    {
        type            symmetryPlane;
        inGroups        1(symmetryPlane);
        nFaces          0;
        startFace       255776;
    }
    plane2
    {
        type            symmetryPlane;
        inGroups        1(symmetryPlane);
        nFaces          0;
        startFace       255776;
    }
    outlet
    {
        type            patch;
        nFaces          0;
        startFace       255776;
    }
    inlet
    {
        type            patch;
        nFaces          0;
        startFace       255776;
    }
    wing
    {
        type            wall;
        inGroups        1(wall);
        nFaces          9205;
        startFace       255776;
    }
    fan01
    {
        type            cyclic;
        inGroups        
2
(
cyclic
cyclicFaces
)
;
        nFaces          0;
        startFace       264981;
        matchTolerance  0.0001;
        transform       unknown;
        neighbourPatch  fan02;
    }
    fan02
    {
        type            cyclic;
        inGroups        
2
(
cyclic
cyclicFaces
)
;
        nFaces          0;
        startFace       264981;
        matchTolerance  0.0001;
        transform       unknown;
        neighbourPatch  fan01;
    }
    procBoundary26to8
    {
        type            processor;
        inGroups        1(processor);
        nFaces          163;
        startFace       264981;
        matchTolerance  0.0001;
        transform       unknown;
        myProcNo        26;
        neighbProcNo    8;
    }
    procBoundary26to24
    {
        type            processor;
        inGroups        1(processor);
        nFaces          2250;
        startFace       265144;
        matchTolerance  0.0001;
        transform       unknown;
        myProcNo        26;
        neighbProcNo    24;
    }
    procBoundary26to27
    {
        type            processor;
        inGroups        1(processor);
        nFaces          1829;
        startFace       267394;
        matchTolerance  0.0001;
        transform       unknown;
        myProcNo        26;
        neighbProcNo    27;
    }
    procBoundary26to28
    {
        type            processor;
        inGroups        1(processor);
        nFaces          1225;
        startFace       269223;
        matchTolerance  0.0001;
        transform       unknown;
        myProcNo        26;
        neighbProcNo    28;
    }
    procBoundary26to30
    {
        type            processor;
        inGroups        1(processor);
        nFaces          968;
        startFace       270448;
        matchTolerance  0.0001;
        transform       unknown;
        myProcNo        26;
        neighbProcNo    30;
    }
    procBoundary26to31
    {
        type            processor;
        inGroups        1(processor);
        nFaces          183;
        startFace       271416;
        matchTolerance  0.0001;
        transform       unknown;
        myProcNo        26;
        neighbProcNo    31;
    }
)

// ************************************************************************* //
