/*--------------------------------*- C++ -*----------------------------------*\
| =========                 |                                                 |
| \\      /  F ield         | OpenFOAM: The Open Source CFD Toolbox           |
|  \\    /   O peration     | Version:  2.4.0                                 |
|   \\  /    A nd           | Web:      www.OpenFOAM.org                      |
|    \\/     M anipulation  |                                                 |
\*---------------------------------------------------------------------------*/
FoamFile
{
    version     2.0;
    format      ascii;
    class       polyBoundaryMesh;
    location    "0/polyMesh";
    object      boundary;
}
// * * * * * * * * * * * * * * * * * * * * * * * * * * * * * * * * * * * * * //

16
(
    plane1
    {
        type            symmetryPlane;
        inGroups        1(symmetryPlane);
        nFaces          0;
        startFace       21013;
    }
    plane2
    {
        type            symmetryPlane;
        inGroups        1(symmetryPlane);
        nFaces          0;
        startFace       21013;
    }
    outlet
    {
        type            patch;
        nFaces          0;
        startFace       21013;
    }
    inlet
    {
        type            patch;
        nFaces          0;
        startFace       21013;
    }
    wing
    {
        type            wall;
        inGroups        1(wall);
        nFaces          1061;
        startFace       21013;
    }
    fan01
    {
        type            cyclic;
        inGroups        
2
(
cyclic
cyclicFaces
)
;
        nFaces          0;
        startFace       22074;
        matchTolerance  0.0001;
        transform       unknown;
        neighbourPatch  fan02;
    }
    fan02
    {
        type            cyclic;
        inGroups        
2
(
cyclic
cyclicFaces
)
;
        nFaces          0;
        startFace       22074;
        matchTolerance  0.0001;
        transform       unknown;
        neighbourPatch  fan01;
    }
    procBoundary61to34
    {
        type            processor;
        inGroups        1(processor);
        nFaces          156;
        startFace       22074;
        matchTolerance  0.0001;
        transform       unknown;
        myProcNo        61;
        neighbProcNo    34;
    }
    procBoundary61to40
    {
        type            processor;
        inGroups        1(processor);
        nFaces          25;
        startFace       22230;
        matchTolerance  0.0001;
        transform       unknown;
        myProcNo        61;
        neighbProcNo    40;
    }
    procBoundary61to42
    {
        type            processor;
        inGroups        1(processor);
        nFaces          24;
        startFace       22255;
        matchTolerance  0.0001;
        transform       unknown;
        myProcNo        61;
        neighbProcNo    42;
    }
    procBoundary61to43
    {
        type            processor;
        inGroups        1(processor);
        nFaces          139;
        startFace       22279;
        matchTolerance  0.0001;
        transform       unknown;
        myProcNo        61;
        neighbProcNo    43;
    }
    procBoundary61to57
    {
        type            processor;
        inGroups        1(processor);
        nFaces          313;
        startFace       22418;
        matchTolerance  0.0001;
        transform       unknown;
        myProcNo        61;
        neighbProcNo    57;
    }
    procBoundary61to59
    {
        type            processor;
        inGroups        1(processor);
        nFaces          5;
        startFace       22731;
        matchTolerance  0.0001;
        transform       unknown;
        myProcNo        61;
        neighbProcNo    59;
    }
    procBoundary61to60
    {
        type            processor;
        inGroups        1(processor);
        nFaces          314;
        startFace       22736;
        matchTolerance  0.0001;
        transform       unknown;
        myProcNo        61;
        neighbProcNo    60;
    }
    procBoundary61to62
    {
        type            processor;
        inGroups        1(processor);
        nFaces          272;
        startFace       23050;
        matchTolerance  0.0001;
        transform       unknown;
        myProcNo        61;
        neighbProcNo    62;
    }
    procBoundary61to63
    {
        type            processor;
        inGroups        1(processor);
        nFaces          170;
        startFace       23322;
        matchTolerance  0.0001;
        transform       unknown;
        myProcNo        61;
        neighbProcNo    63;
    }
)

// ************************************************************************* //
