/*--------------------------------*- C++ -*----------------------------------*\
| =========                 |                                                 |
| \\      /  F ield         | OpenFOAM: The Open Source CFD Toolbox           |
|  \\    /   O peration     | Version:  2.4.0                                 |
|   \\  /    A nd           | Web:      www.OpenFOAM.org                      |
|    \\/     M anipulation  |                                                 |
\*---------------------------------------------------------------------------*/
FoamFile
{
    version     2.0;
    format      ascii;
    class       polyBoundaryMesh;
    location    "0/polyMesh";
    object      boundary;
}
// * * * * * * * * * * * * * * * * * * * * * * * * * * * * * * * * * * * * * //

13
(
    plane1
    {
        type            symmetryPlane;
        inGroups        1(symmetryPlane);
        nFaces          0;
        startFace       42837;
    }
    plane2
    {
        type            symmetryPlane;
        inGroups        1(symmetryPlane);
        nFaces          0;
        startFace       42837;
    }
    outlet
    {
        type            patch;
        nFaces          0;
        startFace       42837;
    }
    inlet
    {
        type            patch;
        nFaces          0;
        startFace       42837;
    }
    wing
    {
        type            wall;
        inGroups        1(wall);
        nFaces          2126;
        startFace       42837;
    }
    fan01
    {
        type            cyclic;
        inGroups        
2
(
cyclic
cyclicFaces
)
;
        nFaces          0;
        startFace       44963;
        matchTolerance  0.0001;
        transform       unknown;
        neighbourPatch  fan02;
    }
    fan02
    {
        type            cyclic;
        inGroups        
2
(
cyclic
cyclicFaces
)
;
        nFaces          0;
        startFace       44963;
        matchTolerance  0.0001;
        transform       unknown;
        neighbourPatch  fan01;
    }
    procBoundary17to0
    {
        type            processor;
        inGroups        1(processor);
        nFaces          93;
        startFace       44963;
        matchTolerance  0.0001;
        transform       unknown;
        myProcNo        17;
        neighbProcNo    0;
    }
    procBoundary17to3
    {
        type            processor;
        inGroups        1(processor);
        nFaces          431;
        startFace       45056;
        matchTolerance  0.0001;
        transform       unknown;
        myProcNo        17;
        neighbProcNo    3;
    }
    procBoundary17to16
    {
        type            processor;
        inGroups        1(processor);
        nFaces          552;
        startFace       45487;
        matchTolerance  0.0001;
        transform       unknown;
        myProcNo        17;
        neighbProcNo    16;
    }
    procBoundary17to23
    {
        type            processor;
        inGroups        1(processor);
        nFaces          9;
        startFace       46039;
        matchTolerance  0.0001;
        transform       unknown;
        myProcNo        17;
        neighbProcNo    23;
    }
    procBoundary17to29
    {
        type            processor;
        inGroups        1(processor);
        nFaces          311;
        startFace       46048;
        matchTolerance  0.0001;
        transform       unknown;
        myProcNo        17;
        neighbProcNo    29;
    }
    procBoundary17to30
    {
        type            processor;
        inGroups        1(processor);
        nFaces          271;
        startFace       46359;
        matchTolerance  0.0001;
        transform       unknown;
        myProcNo        17;
        neighbProcNo    30;
    }
)

// ************************************************************************* //
