/*--------------------------------*- C++ -*----------------------------------*\
| =========                 |                                                 |
| \\      /  F ield         | OpenFOAM: The Open Source CFD Toolbox           |
|  \\    /   O peration     | Version:  2.4.0                                 |
|   \\  /    A nd           | Web:      www.OpenFOAM.org                      |
|    \\/     M anipulation  |                                                 |
\*---------------------------------------------------------------------------*/
FoamFile
{
    version     2.0;
    format      ascii;
    class       polyBoundaryMesh;
    location    "0/polyMesh";
    object      boundary;
}
// * * * * * * * * * * * * * * * * * * * * * * * * * * * * * * * * * * * * * //

16
(
    plane1
    {
        type            symmetryPlane;
        inGroups        1(symmetryPlane);
        nFaces          0;
        startFace       21162;
    }
    plane2
    {
        type            symmetryPlane;
        inGroups        1(symmetryPlane);
        nFaces          5;
        startFace       21162;
    }
    outlet
    {
        type            patch;
        nFaces          0;
        startFace       21167;
    }
    inlet
    {
        type            patch;
        nFaces          0;
        startFace       21167;
    }
    wing
    {
        type            wall;
        inGroups        1(wall);
        nFaces          1093;
        startFace       21167;
    }
    fan01
    {
        type            cyclic;
        inGroups        
2
(
cyclic
cyclicFaces
)
;
        nFaces          0;
        startFace       22260;
        matchTolerance  0.0001;
        transform       unknown;
        neighbourPatch  fan02;
    }
    fan02
    {
        type            cyclic;
        inGroups        
2
(
cyclic
cyclicFaces
)
;
        nFaces          0;
        startFace       22260;
        matchTolerance  0.0001;
        transform       unknown;
        neighbourPatch  fan01;
    }
    procBoundary11to1
    {
        type            processor;
        inGroups        1(processor);
        nFaces          82;
        startFace       22260;
        matchTolerance  0.0001;
        transform       unknown;
        myProcNo        11;
        neighbProcNo    1;
    }
    procBoundary11to8
    {
        type            processor;
        inGroups        1(processor);
        nFaces          409;
        startFace       22342;
        matchTolerance  0.0001;
        transform       unknown;
        myProcNo        11;
        neighbProcNo    8;
    }
    procBoundary11to9
    {
        type            processor;
        inGroups        1(processor);
        nFaces          13;
        startFace       22751;
        matchTolerance  0.0001;
        transform       unknown;
        myProcNo        11;
        neighbProcNo    9;
    }
    procBoundary11to10
    {
        type            processor;
        inGroups        1(processor);
        nFaces          312;
        startFace       22764;
        matchTolerance  0.0001;
        transform       unknown;
        myProcNo        11;
        neighbProcNo    10;
    }
    procBoundary11to12
    {
        type            processor;
        inGroups        1(processor);
        nFaces          53;
        startFace       23076;
        matchTolerance  0.0001;
        transform       unknown;
        myProcNo        11;
        neighbProcNo    12;
    }
    procBoundary11to13
    {
        type            processor;
        inGroups        1(processor);
        nFaces          155;
        startFace       23129;
        matchTolerance  0.0001;
        transform       unknown;
        myProcNo        11;
        neighbProcNo    13;
    }
    procBoundary11to14
    {
        type            processor;
        inGroups        1(processor);
        nFaces          385;
        startFace       23284;
        matchTolerance  0.0001;
        transform       unknown;
        myProcNo        11;
        neighbProcNo    14;
    }
    procBoundary11to19
    {
        type            processor;
        inGroups        1(processor);
        nFaces          4;
        startFace       23669;
        matchTolerance  0.0001;
        transform       unknown;
        myProcNo        11;
        neighbProcNo    19;
    }
    procBoundary11to40
    {
        type            processor;
        inGroups        1(processor);
        nFaces          34;
        startFace       23673;
        matchTolerance  0.0001;
        transform       unknown;
        myProcNo        11;
        neighbProcNo    40;
    }
)

// ************************************************************************* //
