/*--------------------------------*- C++ -*----------------------------------*\
| =========                 |                                                 |
| \\      /  F ield         | OpenFOAM: The Open Source CFD Toolbox           |
|  \\    /   O peration     | Version:  2.4.0                                 |
|   \\  /    A nd           | Web:      www.OpenFOAM.org                      |
|    \\/     M anipulation  |                                                 |
\*---------------------------------------------------------------------------*/
FoamFile
{
    version     2.0;
    format      ascii;
    class       polyBoundaryMesh;
    location    "0/polyMesh";
    object      boundary;
}
// * * * * * * * * * * * * * * * * * * * * * * * * * * * * * * * * * * * * * //

13
(
    plane1
    {
        type            symmetryPlane;
        inGroups        1(symmetryPlane);
        nFaces          0;
        startFace       44651;
    }
    plane2
    {
        type            symmetryPlane;
        inGroups        1(symmetryPlane);
        nFaces          0;
        startFace       44651;
    }
    outlet
    {
        type            patch;
        nFaces          0;
        startFace       44651;
    }
    inlet
    {
        type            patch;
        nFaces          0;
        startFace       44651;
    }
    wing
    {
        type            wall;
        inGroups        1(wall);
        nFaces          1600;
        startFace       44651;
    }
    fan01
    {
        type            cyclic;
        inGroups        
2
(
cyclic
cyclicFaces
)
;
        nFaces          334;
        startFace       46251;
        matchTolerance  0.0001;
        transform       unknown;
        neighbourPatch  fan02;
    }
    fan02
    {
        type            cyclic;
        inGroups        
2
(
cyclic
cyclicFaces
)
;
        nFaces          334;
        startFace       46585;
        matchTolerance  0.0001;
        transform       unknown;
        neighbourPatch  fan01;
    }
    procBoundary22to16
    {
        type            processor;
        inGroups        1(processor);
        nFaces          5;
        startFace       46919;
        matchTolerance  0.0001;
        transform       unknown;
        myProcNo        22;
        neighbProcNo    16;
    }
    procBoundary22to19
    {
        type            processor;
        inGroups        1(processor);
        nFaces          1;
        startFace       46924;
        matchTolerance  0.0001;
        transform       unknown;
        myProcNo        22;
        neighbProcNo    19;
    }
    procBoundary22to20
    {
        type            processor;
        inGroups        1(processor);
        nFaces          423;
        startFace       46925;
        matchTolerance  0.0001;
        transform       unknown;
        myProcNo        22;
        neighbProcNo    20;
    }
    procBoundary22to21
    {
        type            processor;
        inGroups        1(processor);
        nFaces          233;
        startFace       47348;
        matchTolerance  0.0001;
        transform       unknown;
        myProcNo        22;
        neighbProcNo    21;
    }
    procBoundary22to23
    {
        type            processor;
        inGroups        1(processor);
        nFaces          1197;
        startFace       47581;
        matchTolerance  0.0001;
        transform       unknown;
        myProcNo        22;
        neighbProcNo    23;
    }
    procBoundary22to23throughfan01
    {
        type            processorCyclic;
        inGroups        1(processorCyclic);
        nFaces          1;
        startFace       48778;
        matchTolerance  0.0001;
        transform       unknown;
        myProcNo        22;
        neighbProcNo    23;
        referPatch      fan01;
    }
)

// ************************************************************************* //
