/*--------------------------------*- C++ -*----------------------------------*\
| =========                 |                                                 |
| \\      /  F ield         | OpenFOAM: The Open Source CFD Toolbox           |
|  \\    /   O peration     | Version:  2.4.0                                 |
|   \\  /    A nd           | Web:      www.OpenFOAM.org                      |
|    \\/     M anipulation  |                                                 |
\*---------------------------------------------------------------------------*/
FoamFile
{
    version     2.0;
    format      ascii;
    class       polyBoundaryMesh;
    location    "0/polyMesh";
    object      boundary;
}
// * * * * * * * * * * * * * * * * * * * * * * * * * * * * * * * * * * * * * //

12
(
    plane1
    {
        type            symmetryPlane;
        inGroups        1(symmetryPlane);
        nFaces          0;
        startFace       20971;
    }
    plane2
    {
        type            symmetryPlane;
        inGroups        1(symmetryPlane);
        nFaces          258;
        startFace       20971;
    }
    outlet
    {
        type            patch;
        nFaces          0;
        startFace       21229;
    }
    inlet
    {
        type            patch;
        nFaces          0;
        startFace       21229;
    }
    wing
    {
        type            wall;
        inGroups        1(wall);
        nFaces          1204;
        startFace       21229;
    }
    fan01
    {
        type            cyclic;
        inGroups        
2
(
cyclic
cyclicFaces
)
;
        nFaces          0;
        startFace       22433;
        matchTolerance  0.0001;
        transform       unknown;
        neighbourPatch  fan02;
    }
    fan02
    {
        type            cyclic;
        inGroups        
2
(
cyclic
cyclicFaces
)
;
        nFaces          0;
        startFace       22433;
        matchTolerance  0.0001;
        transform       unknown;
        neighbourPatch  fan01;
    }
    procBoundary26to16
    {
        type            processor;
        inGroups        1(processor);
        nFaces          222;
        startFace       22433;
        matchTolerance  0.0001;
        transform       unknown;
        myProcNo        26;
        neighbProcNo    16;
    }
    procBoundary26to24
    {
        type            processor;
        inGroups        1(processor);
        nFaces          269;
        startFace       22655;
        matchTolerance  0.0001;
        transform       unknown;
        myProcNo        26;
        neighbProcNo    24;
    }
    procBoundary26to25
    {
        type            processor;
        inGroups        1(processor);
        nFaces          88;
        startFace       22924;
        matchTolerance  0.0001;
        transform       unknown;
        myProcNo        26;
        neighbProcNo    25;
    }
    procBoundary26to27
    {
        type            processor;
        inGroups        1(processor);
        nFaces          255;
        startFace       23012;
        matchTolerance  0.0001;
        transform       unknown;
        myProcNo        26;
        neighbProcNo    27;
    }
    procBoundary26to40
    {
        type            processor;
        inGroups        1(processor);
        nFaces          7;
        startFace       23267;
        matchTolerance  0.0001;
        transform       unknown;
        myProcNo        26;
        neighbProcNo    40;
    }
)

// ************************************************************************* //
