/*--------------------------------*- C++ -*----------------------------------*\
| =========                 |                                                 |
| \\      /  F ield         | OpenFOAM: The Open Source CFD Toolbox           |
|  \\    /   O peration     | Version:  2.4.0                                 |
|   \\  /    A nd           | Web:      www.OpenFOAM.org                      |
|    \\/     M anipulation  |                                                 |
\*---------------------------------------------------------------------------*/
FoamFile
{
    version     2.0;
    format      ascii;
    class       polyBoundaryMesh;
    location    "0/polyMesh";
    object      boundary;
}
// * * * * * * * * * * * * * * * * * * * * * * * * * * * * * * * * * * * * * //

14
(
    plane1
    {
        type            symmetryPlane;
        inGroups        1(symmetryPlane);
        nFaces          1744;
        startFace       519267;
    }
    plane2
    {
        type            symmetryPlane;
        inGroups        1(symmetryPlane);
        nFaces          0;
        startFace       521011;
    }
    outlet
    {
        type            patch;
        nFaces          0;
        startFace       521011;
    }
    inlet
    {
        type            patch;
        nFaces          0;
        startFace       521011;
    }
    wing
    {
        type            wall;
        inGroups        1(wall);
        nFaces          18665;
        startFace       521011;
    }
    fan01
    {
        type            cyclic;
        inGroups        
2
(
cyclic
cyclicFaces
)
;
        nFaces          0;
        startFace       539676;
        matchTolerance  0.0001;
        transform       unknown;
        neighbourPatch  fan02;
    }
    fan02
    {
        type            cyclic;
        inGroups        
2
(
cyclic
cyclicFaces
)
;
        nFaces          0;
        startFace       539676;
        matchTolerance  0.0001;
        transform       unknown;
        neighbourPatch  fan01;
    }
    procBoundary4to2
    {
        type            processor;
        inGroups        1(processor);
        nFaces          36;
        startFace       539676;
        matchTolerance  0.0001;
        transform       unknown;
        myProcNo        4;
        neighbProcNo    2;
    }
    procBoundary4to5
    {
        type            processor;
        inGroups        1(processor);
        nFaces          2572;
        startFace       539712;
        matchTolerance  0.0001;
        transform       unknown;
        myProcNo        4;
        neighbProcNo    5;
    }
    procBoundary4to7
    {
        type            processor;
        inGroups        1(processor);
        nFaces          1505;
        startFace       542284;
        matchTolerance  0.0001;
        transform       unknown;
        myProcNo        4;
        neighbProcNo    7;
    }
    procBoundary4to9
    {
        type            processor;
        inGroups        1(processor);
        nFaces          24;
        startFace       543789;
        matchTolerance  0.0001;
        transform       unknown;
        myProcNo        4;
        neighbProcNo    9;
    }
    procBoundary4to10
    {
        type            processor;
        inGroups        1(processor);
        nFaces          926;
        startFace       543813;
        matchTolerance  0.0001;
        transform       unknown;
        myProcNo        4;
        neighbProcNo    10;
    }
    procBoundary4to13
    {
        type            processor;
        inGroups        1(processor);
        nFaces          95;
        startFace       544739;
        matchTolerance  0.0001;
        transform       unknown;
        myProcNo        4;
        neighbProcNo    13;
    }
    procBoundary4to15
    {
        type            processor;
        inGroups        1(processor);
        nFaces          1077;
        startFace       544834;
        matchTolerance  0.0001;
        transform       unknown;
        myProcNo        4;
        neighbProcNo    15;
    }
)

// ************************************************************************* //
