/*--------------------------------*- C++ -*----------------------------------*\
| =========                 |                                                 |
| \\      /  F ield         | OpenFOAM: The Open Source CFD Toolbox           |
|  \\    /   O peration     | Version:  2.4.0                                 |
|   \\  /    A nd           | Web:      www.OpenFOAM.org                      |
|    \\/     M anipulation  |                                                 |
\*---------------------------------------------------------------------------*/
FoamFile
{
    version     2.0;
    format      ascii;
    class       polyBoundaryMesh;
    location    "0/polyMesh";
    object      boundary;
}
// * * * * * * * * * * * * * * * * * * * * * * * * * * * * * * * * * * * * * //

75
(
    plane1
    {
        type            symmetryPlane;
        inGroups        1(symmetryPlane);
        nFaces          557;
        startFace       22848;
    }
    plane2
    {
        type            symmetryPlane;
        inGroups        1(symmetryPlane);
        nFaces          565;
        startFace       23405;
    }
    outlet
    {
        type            patch;
        nFaces          54;
        startFace       23970;
    }
    inlet
    {
        type            patch;
        nFaces          16;
        startFace       24024;
    }
    wing
    {
        type            wall;
        inGroups        1(wall);
        nFaces          0;
        startFace       24040;
    }
    fan01
    {
        type            cyclic;
        inGroups        
2
(
cyclic
cyclicFaces
)
;
        nFaces          313;
        startFace       24040;
        matchTolerance  0.0001;
        transform       unknown;
        neighbourPatch  fan02;
    }
    fan02
    {
        type            cyclic;
        inGroups        
2
(
cyclic
cyclicFaces
)
;
        nFaces          313;
        startFace       24353;
        matchTolerance  0.0001;
        transform       unknown;
        neighbourPatch  fan01;
    }
    procBoundary40to0
    {
        type            processor;
        inGroups        1(processor);
        nFaces          14;
        startFace       24666;
        matchTolerance  0.0001;
        transform       unknown;
        myProcNo        40;
        neighbProcNo    0;
    }
    procBoundary40to1
    {
        type            processor;
        inGroups        1(processor);
        nFaces          16;
        startFace       24680;
        matchTolerance  0.0001;
        transform       unknown;
        myProcNo        40;
        neighbProcNo    1;
    }
    procBoundary40to2
    {
        type            processor;
        inGroups        1(processor);
        nFaces          4;
        startFace       24696;
        matchTolerance  0.0001;
        transform       unknown;
        myProcNo        40;
        neighbProcNo    2;
    }
    procBoundary40to3
    {
        type            processor;
        inGroups        1(processor);
        nFaces          60;
        startFace       24700;
        matchTolerance  0.0001;
        transform       unknown;
        myProcNo        40;
        neighbProcNo    3;
    }
    procBoundary40to4
    {
        type            processor;
        inGroups        1(processor);
        nFaces          33;
        startFace       24760;
        matchTolerance  0.0001;
        transform       unknown;
        myProcNo        40;
        neighbProcNo    4;
    }
    procBoundary40to5
    {
        type            processor;
        inGroups        1(processor);
        nFaces          25;
        startFace       24793;
        matchTolerance  0.0001;
        transform       unknown;
        myProcNo        40;
        neighbProcNo    5;
    }
    procBoundary40to6
    {
        type            processor;
        inGroups        1(processor);
        nFaces          5;
        startFace       24818;
        matchTolerance  0.0001;
        transform       unknown;
        myProcNo        40;
        neighbProcNo    6;
    }
    procBoundary40to7
    {
        type            processor;
        inGroups        1(processor);
        nFaces          15;
        startFace       24823;
        matchTolerance  0.0001;
        transform       unknown;
        myProcNo        40;
        neighbProcNo    7;
    }
    procBoundary40to8
    {
        type            processor;
        inGroups        1(processor);
        nFaces          1;
        startFace       24838;
        matchTolerance  0.0001;
        transform       unknown;
        myProcNo        40;
        neighbProcNo    8;
    }
    procBoundary40to9
    {
        type            processor;
        inGroups        1(processor);
        nFaces          24;
        startFace       24839;
        matchTolerance  0.0001;
        transform       unknown;
        myProcNo        40;
        neighbProcNo    9;
    }
    procBoundary40to11
    {
        type            processor;
        inGroups        1(processor);
        nFaces          34;
        startFace       24863;
        matchTolerance  0.0001;
        transform       unknown;
        myProcNo        40;
        neighbProcNo    11;
    }
    procBoundary40to12
    {
        type            processor;
        inGroups        1(processor);
        nFaces          24;
        startFace       24897;
        matchTolerance  0.0001;
        transform       unknown;
        myProcNo        40;
        neighbProcNo    12;
    }
    procBoundary40to13
    {
        type            processor;
        inGroups        1(processor);
        nFaces          44;
        startFace       24921;
        matchTolerance  0.0001;
        transform       unknown;
        myProcNo        40;
        neighbProcNo    13;
    }
    procBoundary40to14
    {
        type            processor;
        inGroups        1(processor);
        nFaces          12;
        startFace       24965;
        matchTolerance  0.0001;
        transform       unknown;
        myProcNo        40;
        neighbProcNo    14;
    }
    procBoundary40to15
    {
        type            processor;
        inGroups        1(processor);
        nFaces          40;
        startFace       24977;
        matchTolerance  0.0001;
        transform       unknown;
        myProcNo        40;
        neighbProcNo    15;
    }
    procBoundary40to16
    {
        type            processor;
        inGroups        1(processor);
        nFaces          22;
        startFace       25017;
        matchTolerance  0.0001;
        transform       unknown;
        myProcNo        40;
        neighbProcNo    16;
    }
    procBoundary40to17
    {
        type            processor;
        inGroups        1(processor);
        nFaces          42;
        startFace       25039;
        matchTolerance  0.0001;
        transform       unknown;
        myProcNo        40;
        neighbProcNo    17;
    }
    procBoundary40to18
    {
        type            processor;
        inGroups        1(processor);
        nFaces          22;
        startFace       25081;
        matchTolerance  0.0001;
        transform       unknown;
        myProcNo        40;
        neighbProcNo    18;
    }
    procBoundary40to19
    {
        type            processor;
        inGroups        1(processor);
        nFaces          98;
        startFace       25103;
        matchTolerance  0.0001;
        transform       unknown;
        myProcNo        40;
        neighbProcNo    19;
    }
    procBoundary40to20
    {
        type            processor;
        inGroups        1(processor);
        nFaces          23;
        startFace       25201;
        matchTolerance  0.0001;
        transform       unknown;
        myProcNo        40;
        neighbProcNo    20;
    }
    procBoundary40to21
    {
        type            processor;
        inGroups        1(processor);
        nFaces          13;
        startFace       25224;
        matchTolerance  0.0001;
        transform       unknown;
        myProcNo        40;
        neighbProcNo    21;
    }
    procBoundary40to22
    {
        type            processor;
        inGroups        1(processor);
        nFaces          68;
        startFace       25237;
        matchTolerance  0.0001;
        transform       unknown;
        myProcNo        40;
        neighbProcNo    22;
    }
    procBoundary40to23
    {
        type            processor;
        inGroups        1(processor);
        nFaces          15;
        startFace       25305;
        matchTolerance  0.0001;
        transform       unknown;
        myProcNo        40;
        neighbProcNo    23;
    }
    procBoundary40to24
    {
        type            processor;
        inGroups        1(processor);
        nFaces          29;
        startFace       25320;
        matchTolerance  0.0001;
        transform       unknown;
        myProcNo        40;
        neighbProcNo    24;
    }
    procBoundary40to25
    {
        type            processor;
        inGroups        1(processor);
        nFaces          128;
        startFace       25349;
        matchTolerance  0.0001;
        transform       unknown;
        myProcNo        40;
        neighbProcNo    25;
    }
    procBoundary40to25throughfan01
    {
        type            processorCyclic;
        inGroups        1(processorCyclic);
        nFaces          3;
        startFace       25477;
        matchTolerance  0.0001;
        transform       unknown;
        myProcNo        40;
        neighbProcNo    25;
        referPatch      fan01;
    }
    procBoundary40to26
    {
        type            processor;
        inGroups        1(processor);
        nFaces          7;
        startFace       25480;
        matchTolerance  0.0001;
        transform       unknown;
        myProcNo        40;
        neighbProcNo    26;
    }
    procBoundary40to27
    {
        type            processor;
        inGroups        1(processor);
        nFaces          10;
        startFace       25487;
        matchTolerance  0.0001;
        transform       unknown;
        myProcNo        40;
        neighbProcNo    27;
    }
    procBoundary40to28
    {
        type            processor;
        inGroups        1(processor);
        nFaces          97;
        startFace       25497;
        matchTolerance  0.0001;
        transform       unknown;
        myProcNo        40;
        neighbProcNo    28;
    }
    procBoundary40to29
    {
        type            processor;
        inGroups        1(processor);
        nFaces          6;
        startFace       25594;
        matchTolerance  0.0001;
        transform       unknown;
        myProcNo        40;
        neighbProcNo    29;
    }
    procBoundary40to30
    {
        type            processor;
        inGroups        1(processor);
        nFaces          7;
        startFace       25600;
        matchTolerance  0.0001;
        transform       unknown;
        myProcNo        40;
        neighbProcNo    30;
    }
    procBoundary40to31
    {
        type            processor;
        inGroups        1(processor);
        nFaces          9;
        startFace       25607;
        matchTolerance  0.0001;
        transform       unknown;
        myProcNo        40;
        neighbProcNo    31;
    }
    procBoundary40to32
    {
        type            processor;
        inGroups        1(processor);
        nFaces          20;
        startFace       25616;
        matchTolerance  0.0001;
        transform       unknown;
        myProcNo        40;
        neighbProcNo    32;
    }
    procBoundary40to33
    {
        type            processor;
        inGroups        1(processor);
        nFaces          5;
        startFace       25636;
        matchTolerance  0.0001;
        transform       unknown;
        myProcNo        40;
        neighbProcNo    33;
    }
    procBoundary40to34
    {
        type            processor;
        inGroups        1(processor);
        nFaces          31;
        startFace       25641;
        matchTolerance  0.0001;
        transform       unknown;
        myProcNo        40;
        neighbProcNo    34;
    }
    procBoundary40to35
    {
        type            processor;
        inGroups        1(processor);
        nFaces          7;
        startFace       25672;
        matchTolerance  0.0001;
        transform       unknown;
        myProcNo        40;
        neighbProcNo    35;
    }
    procBoundary40to37
    {
        type            processor;
        inGroups        1(processor);
        nFaces          10;
        startFace       25679;
        matchTolerance  0.0001;
        transform       unknown;
        myProcNo        40;
        neighbProcNo    37;
    }
    procBoundary40to38
    {
        type            processor;
        inGroups        1(processor);
        nFaces          15;
        startFace       25689;
        matchTolerance  0.0001;
        transform       unknown;
        myProcNo        40;
        neighbProcNo    38;
    }
    procBoundary40to39
    {
        type            processor;
        inGroups        1(processor);
        nFaces          6;
        startFace       25704;
        matchTolerance  0.0001;
        transform       unknown;
        myProcNo        40;
        neighbProcNo    39;
    }
    procBoundary40to41
    {
        type            processor;
        inGroups        1(processor);
        nFaces          31;
        startFace       25710;
        matchTolerance  0.0001;
        transform       unknown;
        myProcNo        40;
        neighbProcNo    41;
    }
    procBoundary40to42
    {
        type            processor;
        inGroups        1(processor);
        nFaces          17;
        startFace       25741;
        matchTolerance  0.0001;
        transform       unknown;
        myProcNo        40;
        neighbProcNo    42;
    }
    procBoundary40to43
    {
        type            processor;
        inGroups        1(processor);
        nFaces          76;
        startFace       25758;
        matchTolerance  0.0001;
        transform       unknown;
        myProcNo        40;
        neighbProcNo    43;
    }
    procBoundary40to43throughfan01
    {
        type            processorCyclic;
        inGroups        1(processorCyclic);
        nFaces          6;
        startFace       25834;
        matchTolerance  0.0001;
        transform       unknown;
        myProcNo        40;
        neighbProcNo    43;
        referPatch      fan01;
    }
    procBoundary40to44
    {
        type            processor;
        inGroups        1(processor);
        nFaces          227;
        startFace       25840;
        matchTolerance  0.0001;
        transform       unknown;
        myProcNo        40;
        neighbProcNo    44;
    }
    procBoundary40to44throughfan01
    {
        type            processorCyclic;
        inGroups        1(processorCyclic);
        nFaces          9;
        startFace       26067;
        matchTolerance  0.0001;
        transform       unknown;
        myProcNo        40;
        neighbProcNo    44;
        referPatch      fan01;
    }
    procBoundary40to45
    {
        type            processor;
        inGroups        1(processor);
        nFaces          244;
        startFace       26076;
        matchTolerance  0.0001;
        transform       unknown;
        myProcNo        40;
        neighbProcNo    45;
    }
    procBoundary40to46
    {
        type            processor;
        inGroups        1(processor);
        nFaces          256;
        startFace       26320;
        matchTolerance  0.0001;
        transform       unknown;
        myProcNo        40;
        neighbProcNo    46;
    }
    procBoundary40to46throughfan01
    {
        type            processorCyclic;
        inGroups        1(processorCyclic);
        nFaces          7;
        startFace       26576;
        matchTolerance  0.0001;
        transform       unknown;
        myProcNo        40;
        neighbProcNo    46;
        referPatch      fan01;
    }
    procBoundary40to46throughfan02
    {
        type            processorCyclic;
        inGroups        1(processorCyclic);
        nFaces          2;
        startFace       26583;
        matchTolerance  0.0001;
        transform       unknown;
        myProcNo        40;
        neighbProcNo    46;
        referPatch      fan02;
    }
    procBoundary40to47
    {
        type            processor;
        inGroups        1(processor);
        nFaces          161;
        startFace       26585;
        matchTolerance  0.0001;
        transform       unknown;
        myProcNo        40;
        neighbProcNo    47;
    }
    procBoundary40to47throughfan01
    {
        type            processorCyclic;
        inGroups        1(processorCyclic);
        nFaces          7;
        startFace       26746;
        matchTolerance  0.0001;
        transform       unknown;
        myProcNo        40;
        neighbProcNo    47;
        referPatch      fan01;
    }
    procBoundary40to48
    {
        type            processor;
        inGroups        1(processor);
        nFaces          2;
        startFace       26753;
        matchTolerance  0.0001;
        transform       unknown;
        myProcNo        40;
        neighbProcNo    48;
    }
    procBoundary40to49
    {
        type            processor;
        inGroups        1(processor);
        nFaces          14;
        startFace       26755;
        matchTolerance  0.0001;
        transform       unknown;
        myProcNo        40;
        neighbProcNo    49;
    }
    procBoundary40to50
    {
        type            processor;
        inGroups        1(processor);
        nFaces          19;
        startFace       26769;
        matchTolerance  0.0001;
        transform       unknown;
        myProcNo        40;
        neighbProcNo    50;
    }
    procBoundary40to51
    {
        type            processor;
        inGroups        1(processor);
        nFaces          69;
        startFace       26788;
        matchTolerance  0.0001;
        transform       unknown;
        myProcNo        40;
        neighbProcNo    51;
    }
    procBoundary40to52
    {
        type            processor;
        inGroups        1(processor);
        nFaces          14;
        startFace       26857;
        matchTolerance  0.0001;
        transform       unknown;
        myProcNo        40;
        neighbProcNo    52;
    }
    procBoundary40to53
    {
        type            processor;
        inGroups        1(processor);
        nFaces          10;
        startFace       26871;
        matchTolerance  0.0001;
        transform       unknown;
        myProcNo        40;
        neighbProcNo    53;
    }
    procBoundary40to54
    {
        type            processor;
        inGroups        1(processor);
        nFaces          5;
        startFace       26881;
        matchTolerance  0.0001;
        transform       unknown;
        myProcNo        40;
        neighbProcNo    54;
    }
    procBoundary40to55
    {
        type            processor;
        inGroups        1(processor);
        nFaces          23;
        startFace       26886;
        matchTolerance  0.0001;
        transform       unknown;
        myProcNo        40;
        neighbProcNo    55;
    }
    procBoundary40to56
    {
        type            processor;
        inGroups        1(processor);
        nFaces          36;
        startFace       26909;
        matchTolerance  0.0001;
        transform       unknown;
        myProcNo        40;
        neighbProcNo    56;
    }
    procBoundary40to57
    {
        type            processor;
        inGroups        1(processor);
        nFaces          160;
        startFace       26945;
        matchTolerance  0.0001;
        transform       unknown;
        myProcNo        40;
        neighbProcNo    57;
    }
    procBoundary40to57throughfan01
    {
        type            processorCyclic;
        inGroups        1(processorCyclic);
        nFaces          31;
        startFace       27105;
        matchTolerance  0.0001;
        transform       unknown;
        myProcNo        40;
        neighbProcNo    57;
        referPatch      fan01;
    }
    procBoundary40to58
    {
        type            processor;
        inGroups        1(processor);
        nFaces          29;
        startFace       27136;
        matchTolerance  0.0001;
        transform       unknown;
        myProcNo        40;
        neighbProcNo    58;
    }
    procBoundary40to59
    {
        type            processor;
        inGroups        1(processor);
        nFaces          27;
        startFace       27165;
        matchTolerance  0.0001;
        transform       unknown;
        myProcNo        40;
        neighbProcNo    59;
    }
    procBoundary40to60
    {
        type            processor;
        inGroups        1(processor);
        nFaces          11;
        startFace       27192;
        matchTolerance  0.0001;
        transform       unknown;
        myProcNo        40;
        neighbProcNo    60;
    }
    procBoundary40to61
    {
        type            processor;
        inGroups        1(processor);
        nFaces          25;
        startFace       27203;
        matchTolerance  0.0001;
        transform       unknown;
        myProcNo        40;
        neighbProcNo    61;
    }
    procBoundary40to62
    {
        type            processor;
        inGroups        1(processor);
        nFaces          21;
        startFace       27228;
        matchTolerance  0.0001;
        transform       unknown;
        myProcNo        40;
        neighbProcNo    62;
    }
    procBoundary40to63
    {
        type            processor;
        inGroups        1(processor);
        nFaces          18;
        startFace       27249;
        matchTolerance  0.0001;
        transform       unknown;
        myProcNo        40;
        neighbProcNo    63;
    }
)

// ************************************************************************* //
