/*--------------------------------*- C++ -*----------------------------------*\
| =========                 |                                                 |
| \\      /  F ield         | OpenFOAM: The Open Source CFD Toolbox           |
|  \\    /   O peration     | Version:  2.4.0                                 |
|   \\  /    A nd           | Web:      www.OpenFOAM.org                      |
|    \\/     M anipulation  |                                                 |
\*---------------------------------------------------------------------------*/
FoamFile
{
    version     2.0;
    format      ascii;
    class       polyBoundaryMesh;
    location    "0/polyMesh";
    object      boundary;
}
// * * * * * * * * * * * * * * * * * * * * * * * * * * * * * * * * * * * * * //

8
(
    plane1
    {
        type            symmetryPlane;
        inGroups        1(symmetryPlane);
        nFaces          0;
        startFace       691737;
    }
    plane2
    {
        type            symmetryPlane;
        inGroups        1(symmetryPlane);
        nFaces          2106;
        startFace       691737;
    }
    outlet
    {
        type            patch;
        nFaces          0;
        startFace       693843;
    }
    inlet
    {
        type            patch;
        nFaces          0;
        startFace       693843;
    }
    wing
    {
        type            wall;
        inGroups        1(wall);
        nFaces          34787;
        startFace       693843;
    }
    fan01
    {
        type            cyclic;
        inGroups        
2
(
cyclic
cyclicFaces
)
;
        nFaces          0;
        startFace       728630;
        matchTolerance  0.0001;
        transform       unknown;
        neighbourPatch  fan02;
    }
    fan02
    {
        type            cyclic;
        inGroups        
2
(
cyclic
cyclicFaces
)
;
        nFaces          0;
        startFace       728630;
        matchTolerance  0.0001;
        transform       unknown;
        neighbourPatch  fan01;
    }
    procBoundary0to1
    {
        type            processor;
        inGroups        1(processor);
        nFaces          3586;
        startFace       728630;
        matchTolerance  0.0001;
        transform       unknown;
        myProcNo        0;
        neighbProcNo    1;
    }
)

// ************************************************************************* //
