/*--------------------------------*- C++ -*----------------------------------*\
| =========                 |                                                 |
| \\      /  F ield         | OpenFOAM: The Open Source CFD Toolbox           |
|  \\    /   O peration     | Version:  2.4.0                                 |
|   \\  /    A nd           | Web:      www.OpenFOAM.org                      |
|    \\/     M anipulation  |                                                 |
\*---------------------------------------------------------------------------*/
FoamFile
{
    version     2.0;
    format      ascii;
    class       polyBoundaryMesh;
    location    "0/polyMesh";
    object      boundary;
}
// * * * * * * * * * * * * * * * * * * * * * * * * * * * * * * * * * * * * * //

19
(
    plane1
    {
        type            symmetryPlane;
        inGroups        1(symmetryPlane);
        nFaces          0;
        startFace       21624;
    }
    plane2
    {
        type            symmetryPlane;
        inGroups        1(symmetryPlane);
        nFaces          0;
        startFace       21624;
    }
    outlet
    {
        type            patch;
        nFaces          0;
        startFace       21624;
    }
    inlet
    {
        type            patch;
        nFaces          0;
        startFace       21624;
    }
    wing
    {
        type            wall;
        inGroups        1(wall);
        nFaces          911;
        startFace       21624;
    }
    fan01
    {
        type            cyclic;
        inGroups        
2
(
cyclic
cyclicFaces
)
;
        nFaces          0;
        startFace       22535;
        matchTolerance  0.0001;
        transform       unknown;
        neighbourPatch  fan02;
    }
    fan02
    {
        type            cyclic;
        inGroups        
2
(
cyclic
cyclicFaces
)
;
        nFaces          0;
        startFace       22535;
        matchTolerance  0.0001;
        transform       unknown;
        neighbourPatch  fan01;
    }
    procBoundary43to34
    {
        type            processor;
        inGroups        1(processor);
        nFaces          29;
        startFace       22535;
        matchTolerance  0.0001;
        transform       unknown;
        myProcNo        43;
        neighbProcNo    34;
    }
    procBoundary43to40
    {
        type            processor;
        inGroups        1(processor);
        nFaces          76;
        startFace       22564;
        matchTolerance  0.0001;
        transform       unknown;
        myProcNo        43;
        neighbProcNo    40;
    }
    procBoundary43to40throughfan02
    {
        type            processorCyclic;
        inGroups        1(processorCyclic);
        nFaces          6;
        startFace       22640;
        matchTolerance  0.0001;
        transform       unknown;
        myProcNo        43;
        neighbProcNo    40;
        referPatch      fan02;
    }
    procBoundary43to41
    {
        type            processor;
        inGroups        1(processor);
        nFaces          222;
        startFace       22646;
        matchTolerance  0.0001;
        transform       unknown;
        myProcNo        43;
        neighbProcNo    41;
    }
    procBoundary43to42
    {
        type            processor;
        inGroups        1(processor);
        nFaces          345;
        startFace       22868;
        matchTolerance  0.0001;
        transform       unknown;
        myProcNo        43;
        neighbProcNo    42;
    }
    procBoundary43to44
    {
        type            processor;
        inGroups        1(processor);
        nFaces          419;
        startFace       23213;
        matchTolerance  0.0001;
        transform       unknown;
        myProcNo        43;
        neighbProcNo    44;
    }
    procBoundary43to45
    {
        type            processor;
        inGroups        1(processor);
        nFaces          11;
        startFace       23632;
        matchTolerance  0.0001;
        transform       unknown;
        myProcNo        43;
        neighbProcNo    45;
    }
    procBoundary43to45throughfan02
    {
        type            processorCyclic;
        inGroups        1(processorCyclic);
        nFaces          11;
        startFace       23643;
        matchTolerance  0.0001;
        transform       unknown;
        myProcNo        43;
        neighbProcNo    45;
        referPatch      fan02;
    }
    procBoundary43to47
    {
        type            processor;
        inGroups        1(processor);
        nFaces          223;
        startFace       23654;
        matchTolerance  0.0001;
        transform       unknown;
        myProcNo        43;
        neighbProcNo    47;
    }
    procBoundary43to57
    {
        type            processor;
        inGroups        1(processor);
        nFaces          33;
        startFace       23877;
        matchTolerance  0.0001;
        transform       unknown;
        myProcNo        43;
        neighbProcNo    57;
    }
    procBoundary43to61
    {
        type            processor;
        inGroups        1(processor);
        nFaces          139;
        startFace       23910;
        matchTolerance  0.0001;
        transform       unknown;
        myProcNo        43;
        neighbProcNo    61;
    }
    procBoundary43to62
    {
        type            processor;
        inGroups        1(processor);
        nFaces          245;
        startFace       24049;
        matchTolerance  0.0001;
        transform       unknown;
        myProcNo        43;
        neighbProcNo    62;
    }
)

// ************************************************************************* //
