/*--------------------------------*- C++ -*----------------------------------*\
| =========                 |                                                 |
| \\      /  F ield         | OpenFOAM: The Open Source CFD Toolbox           |
|  \\    /   O peration     | Version:  2.4.0                                 |
|   \\  /    A nd           | Web:      www.OpenFOAM.org                      |
|    \\/     M anipulation  |                                                 |
\*---------------------------------------------------------------------------*/
FoamFile
{
    version     2.0;
    format      ascii;
    class       polyBoundaryMesh;
    location    "0/polyMesh";
    object      boundary;
}
// * * * * * * * * * * * * * * * * * * * * * * * * * * * * * * * * * * * * * //

12
(
    plane1
    {
        type            symmetryPlane;
        inGroups        1(symmetryPlane);
        nFaces          0;
        startFace       21036;
    }
    plane2
    {
        type            symmetryPlane;
        inGroups        1(symmetryPlane);
        nFaces          0;
        startFace       21036;
    }
    outlet
    {
        type            patch;
        nFaces          0;
        startFace       21036;
    }
    inlet
    {
        type            patch;
        nFaces          0;
        startFace       21036;
    }
    wing
    {
        type            wall;
        inGroups        1(wall);
        nFaces          1070;
        startFace       21036;
    }
    fan01
    {
        type            cyclic;
        inGroups        
2
(
cyclic
cyclicFaces
)
;
        nFaces          0;
        startFace       22106;
        matchTolerance  0.0001;
        transform       unknown;
        neighbourPatch  fan02;
    }
    fan02
    {
        type            cyclic;
        inGroups        
2
(
cyclic
cyclicFaces
)
;
        nFaces          0;
        startFace       22106;
        matchTolerance  0.0001;
        transform       unknown;
        neighbourPatch  fan01;
    }
    procBoundary39to32
    {
        type            processor;
        inGroups        1(processor);
        nFaces          154;
        startFace       22106;
        matchTolerance  0.0001;
        transform       unknown;
        myProcNo        39;
        neighbProcNo    32;
    }
    procBoundary39to33
    {
        type            processor;
        inGroups        1(processor);
        nFaces          331;
        startFace       22260;
        matchTolerance  0.0001;
        transform       unknown;
        myProcNo        39;
        neighbProcNo    33;
    }
    procBoundary39to37
    {
        type            processor;
        inGroups        1(processor);
        nFaces          405;
        startFace       22591;
        matchTolerance  0.0001;
        transform       unknown;
        myProcNo        39;
        neighbProcNo    37;
    }
    procBoundary39to38
    {
        type            processor;
        inGroups        1(processor);
        nFaces          410;
        startFace       22996;
        matchTolerance  0.0001;
        transform       unknown;
        myProcNo        39;
        neighbProcNo    38;
    }
    procBoundary39to40
    {
        type            processor;
        inGroups        1(processor);
        nFaces          6;
        startFace       23406;
        matchTolerance  0.0001;
        transform       unknown;
        myProcNo        39;
        neighbProcNo    40;
    }
)

// ************************************************************************* //
