/*--------------------------------*- C++ -*----------------------------------*\
| =========                 |                                                 |
| \\      /  F ield         | OpenFOAM: The Open Source CFD Toolbox           |
|  \\    /   O peration     | Version:  2.4.0                                 |
|   \\  /    A nd           | Web:      www.OpenFOAM.org                      |
|    \\/     M anipulation  |                                                 |
\*---------------------------------------------------------------------------*/
FoamFile
{
    version     2.0;
    format      ascii;
    class       polyBoundaryMesh;
    location    "0/polyMesh";
    object      boundary;
}
// * * * * * * * * * * * * * * * * * * * * * * * * * * * * * * * * * * * * * //

15
(
    plane1
    {
        type            symmetryPlane;
        inGroups        1(symmetryPlane);
        nFaces          0;
        startFace       259549;
    }
    plane2
    {
        type            symmetryPlane;
        inGroups        1(symmetryPlane);
        nFaces          0;
        startFace       259549;
    }
    outlet
    {
        type            patch;
        nFaces          0;
        startFace       259549;
    }
    inlet
    {
        type            patch;
        nFaces          0;
        startFace       259549;
    }
    wing
    {
        type            wall;
        inGroups        1(wall);
        nFaces          9804;
        startFace       259549;
    }
    fan01
    {
        type            cyclic;
        inGroups        
2
(
cyclic
cyclicFaces
)
;
        nFaces          0;
        startFace       269353;
        matchTolerance  0.0001;
        transform       unknown;
        neighbourPatch  fan02;
    }
    fan02
    {
        type            cyclic;
        inGroups        
2
(
cyclic
cyclicFaces
)
;
        nFaces          0;
        startFace       269353;
        matchTolerance  0.0001;
        transform       unknown;
        neighbourPatch  fan01;
    }
    procBoundary18to8
    {
        type            processor;
        inGroups        1(processor);
        nFaces          37;
        startFace       269353;
        matchTolerance  0.0001;
        transform       unknown;
        myProcNo        18;
        neighbProcNo    8;
    }
    procBoundary18to10
    {
        type            processor;
        inGroups        1(processor);
        nFaces          34;
        startFace       269390;
        matchTolerance  0.0001;
        transform       unknown;
        myProcNo        18;
        neighbProcNo    10;
    }
    procBoundary18to12
    {
        type            processor;
        inGroups        1(processor);
        nFaces          1334;
        startFace       269424;
        matchTolerance  0.0001;
        transform       unknown;
        myProcNo        18;
        neighbProcNo    12;
    }
    procBoundary18to17
    {
        type            processor;
        inGroups        1(processor);
        nFaces          645;
        startFace       270758;
        matchTolerance  0.0001;
        transform       unknown;
        myProcNo        18;
        neighbProcNo    17;
    }
    procBoundary18to19
    {
        type            processor;
        inGroups        1(processor);
        nFaces          2176;
        startFace       271403;
        matchTolerance  0.0001;
        transform       unknown;
        myProcNo        18;
        neighbProcNo    19;
    }
    procBoundary18to24
    {
        type            processor;
        inGroups        1(processor);
        nFaces          716;
        startFace       273579;
        matchTolerance  0.0001;
        transform       unknown;
        myProcNo        18;
        neighbProcNo    24;
    }
    procBoundary18to25
    {
        type            processor;
        inGroups        1(processor);
        nFaces          919;
        startFace       274295;
        matchTolerance  0.0001;
        transform       unknown;
        myProcNo        18;
        neighbProcNo    25;
    }
    procBoundary18to27
    {
        type            processor;
        inGroups        1(processor);
        nFaces          975;
        startFace       275214;
        matchTolerance  0.0001;
        transform       unknown;
        myProcNo        18;
        neighbProcNo    27;
    }
)

// ************************************************************************* //
