/*--------------------------------*- C++ -*----------------------------------*\
| =========                 |                                                 |
| \\      /  F ield         | OpenFOAM: The Open Source CFD Toolbox           |
|  \\    /   O peration     | Version:  2.4.0                                 |
|   \\  /    A nd           | Web:      www.OpenFOAM.org                      |
|    \\/     M anipulation  |                                                 |
\*---------------------------------------------------------------------------*/
FoamFile
{
    version     2.0;
    format      ascii;
    class       polyBoundaryMesh;
    location    "0/polyMesh";
    object      boundary;
}
// * * * * * * * * * * * * * * * * * * * * * * * * * * * * * * * * * * * * * //

16
(
    plane1
    {
        type            symmetryPlane;
        inGroups        1(symmetryPlane);
        nFaces          0;
        startFace       22331;
    }
    plane2
    {
        type            symmetryPlane;
        inGroups        1(symmetryPlane);
        nFaces          0;
        startFace       22331;
    }
    outlet
    {
        type            patch;
        nFaces          0;
        startFace       22331;
    }
    inlet
    {
        type            patch;
        nFaces          0;
        startFace       22331;
    }
    wing
    {
        type            wall;
        inGroups        1(wall);
        nFaces          776;
        startFace       22331;
    }
    fan01
    {
        type            cyclic;
        inGroups        
2
(
cyclic
cyclicFaces
)
;
        nFaces          76;
        startFace       23107;
        matchTolerance  0.0001;
        transform       unknown;
        neighbourPatch  fan02;
    }
    fan02
    {
        type            cyclic;
        inGroups        
2
(
cyclic
cyclicFaces
)
;
        nFaces          76;
        startFace       23183;
        matchTolerance  0.0001;
        transform       unknown;
        neighbourPatch  fan01;
    }
    procBoundary45to40
    {
        type            processor;
        inGroups        1(processor);
        nFaces          244;
        startFace       23259;
        matchTolerance  0.0001;
        transform       unknown;
        myProcNo        45;
        neighbProcNo    40;
    }
    procBoundary45to43
    {
        type            processor;
        inGroups        1(processor);
        nFaces          11;
        startFace       23503;
        matchTolerance  0.0001;
        transform       unknown;
        myProcNo        45;
        neighbProcNo    43;
    }
    procBoundary45to43throughfan01
    {
        type            processorCyclic;
        inGroups        1(processorCyclic);
        nFaces          11;
        startFace       23514;
        matchTolerance  0.0001;
        transform       unknown;
        myProcNo        45;
        neighbProcNo    43;
        referPatch      fan01;
    }
    procBoundary45to44
    {
        type            processor;
        inGroups        1(processor);
        nFaces          475;
        startFace       23525;
        matchTolerance  0.0001;
        transform       unknown;
        myProcNo        45;
        neighbProcNo    44;
    }
    procBoundary45to44throughfan01
    {
        type            processorCyclic;
        inGroups        1(processorCyclic);
        nFaces          2;
        startFace       24000;
        matchTolerance  0.0001;
        transform       unknown;
        myProcNo        45;
        neighbProcNo    44;
        referPatch      fan01;
    }
    procBoundary45to46
    {
        type            processor;
        inGroups        1(processor);
        nFaces          542;
        startFace       24002;
        matchTolerance  0.0001;
        transform       unknown;
        myProcNo        45;
        neighbProcNo    46;
    }
    procBoundary45to46throughfan01
    {
        type            processorCyclic;
        inGroups        1(processorCyclic);
        nFaces          1;
        startFace       24544;
        matchTolerance  0.0001;
        transform       unknown;
        myProcNo        45;
        neighbProcNo    46;
        referPatch      fan01;
    }
    procBoundary45to47
    {
        type            processor;
        inGroups        1(processor);
        nFaces          231;
        startFace       24545;
        matchTolerance  0.0001;
        transform       unknown;
        myProcNo        45;
        neighbProcNo    47;
    }
    procBoundary45to47throughfan01
    {
        type            processorCyclic;
        inGroups        1(processorCyclic);
        nFaces          13;
        startFace       24776;
        matchTolerance  0.0001;
        transform       unknown;
        myProcNo        45;
        neighbProcNo    47;
        referPatch      fan01;
    }
)

// ************************************************************************* //
