/*--------------------------------*- C++ -*----------------------------------*\
| =========                 |                                                 |
| \\      /  F ield         | OpenFOAM: The Open Source CFD Toolbox           |
|  \\    /   O peration     | Version:  2.4.0                                 |
|   \\  /    A nd           | Web:      www.OpenFOAM.org                      |
|    \\/     M anipulation  |                                                 |
\*---------------------------------------------------------------------------*/
FoamFile
{
    version     2.0;
    format      ascii;
    class       polyBoundaryMesh;
    location    "0/polyMesh";
    object      boundary;
}
// * * * * * * * * * * * * * * * * * * * * * * * * * * * * * * * * * * * * * //

13
(
    plane1
    {
        type            symmetryPlane;
        inGroups        1(symmetryPlane);
        nFaces          344;
        startFace       21227;
    }
    plane2
    {
        type            symmetryPlane;
        inGroups        1(symmetryPlane);
        nFaces          0;
        startFace       21571;
    }
    outlet
    {
        type            patch;
        nFaces          0;
        startFace       21571;
    }
    inlet
    {
        type            patch;
        nFaces          0;
        startFace       21571;
    }
    wing
    {
        type            wall;
        inGroups        1(wall);
        nFaces          1101;
        startFace       21571;
    }
    fan01
    {
        type            cyclic;
        inGroups        
2
(
cyclic
cyclicFaces
)
;
        nFaces          0;
        startFace       22672;
        matchTolerance  0.0001;
        transform       unknown;
        neighbourPatch  fan02;
    }
    fan02
    {
        type            cyclic;
        inGroups        
2
(
cyclic
cyclicFaces
)
;
        nFaces          0;
        startFace       22672;
        matchTolerance  0.0001;
        transform       unknown;
        neighbourPatch  fan01;
    }
    procBoundary38to33
    {
        type            processor;
        inGroups        1(processor);
        nFaces          88;
        startFace       22672;
        matchTolerance  0.0001;
        transform       unknown;
        myProcNo        38;
        neighbProcNo    33;
    }
    procBoundary38to37
    {
        type            processor;
        inGroups        1(processor);
        nFaces          112;
        startFace       22760;
        matchTolerance  0.0001;
        transform       unknown;
        myProcNo        38;
        neighbProcNo    37;
    }
    procBoundary38to39
    {
        type            processor;
        inGroups        1(processor);
        nFaces          410;
        startFace       22872;
        matchTolerance  0.0001;
        transform       unknown;
        myProcNo        38;
        neighbProcNo    39;
    }
    procBoundary38to40
    {
        type            processor;
        inGroups        1(processor);
        nFaces          15;
        startFace       23282;
        matchTolerance  0.0001;
        transform       unknown;
        myProcNo        38;
        neighbProcNo    40;
    }
    procBoundary38to56
    {
        type            processor;
        inGroups        1(processor);
        nFaces          485;
        startFace       23297;
        matchTolerance  0.0001;
        transform       unknown;
        myProcNo        38;
        neighbProcNo    56;
    }
    procBoundary38to57
    {
        type            processor;
        inGroups        1(processor);
        nFaces          4;
        startFace       23782;
        matchTolerance  0.0001;
        transform       unknown;
        myProcNo        38;
        neighbProcNo    57;
    }
)

// ************************************************************************* //
