/*--------------------------------*- C++ -*----------------------------------*\
| =========                 |                                                 |
| \\      /  F ield         | OpenFOAM: The Open Source CFD Toolbox           |
|  \\    /   O peration     | Version:  2.4.0                                 |
|   \\  /    A nd           | Web:      www.OpenFOAM.org                      |
|    \\/     M anipulation  |                                                 |
\*---------------------------------------------------------------------------*/
FoamFile
{
    version     2.0;
    format      ascii;
    class       polyBoundaryMesh;
    location    "0/polyMesh";
    object      boundary;
}
// * * * * * * * * * * * * * * * * * * * * * * * * * * * * * * * * * * * * * //

14
(
    plane1
    {
        type            symmetryPlane;
        inGroups        1(symmetryPlane);
        nFaces          0;
        startFace       522066;
    }
    plane2
    {
        type            symmetryPlane;
        inGroups        1(symmetryPlane);
        nFaces          0;
        startFace       522066;
    }
    outlet
    {
        type            patch;
        nFaces          0;
        startFace       522066;
    }
    inlet
    {
        type            patch;
        nFaces          0;
        startFace       522066;
    }
    wing
    {
        type            wall;
        inGroups        1(wall);
        nFaces          19169;
        startFace       522066;
    }
    fan01
    {
        type            cyclic;
        inGroups        
2
(
cyclic
cyclicFaces
)
;
        nFaces          0;
        startFace       541235;
        matchTolerance  0.0001;
        transform       unknown;
        neighbourPatch  fan02;
    }
    fan02
    {
        type            cyclic;
        inGroups        
2
(
cyclic
cyclicFaces
)
;
        nFaces          0;
        startFace       541235;
        matchTolerance  0.0001;
        transform       unknown;
        neighbourPatch  fan01;
    }
    procBoundary10to0
    {
        type            processor;
        inGroups        1(processor);
        nFaces          73;
        startFace       541235;
        matchTolerance  0.0001;
        transform       unknown;
        myProcNo        10;
        neighbProcNo    0;
    }
    procBoundary10to4
    {
        type            processor;
        inGroups        1(processor);
        nFaces          926;
        startFace       541308;
        matchTolerance  0.0001;
        transform       unknown;
        myProcNo        10;
        neighbProcNo    4;
    }
    procBoundary10to5
    {
        type            processor;
        inGroups        1(processor);
        nFaces          1399;
        startFace       542234;
        matchTolerance  0.0001;
        transform       unknown;
        myProcNo        10;
        neighbProcNo    5;
    }
    procBoundary10to9
    {
        type            processor;
        inGroups        1(processor);
        nFaces          1160;
        startFace       543633;
        matchTolerance  0.0001;
        transform       unknown;
        myProcNo        10;
        neighbProcNo    9;
    }
    procBoundary10to11
    {
        type            processor;
        inGroups        1(processor);
        nFaces          2207;
        startFace       544793;
        matchTolerance  0.0001;
        transform       unknown;
        myProcNo        10;
        neighbProcNo    11;
    }
    procBoundary10to13
    {
        type            processor;
        inGroups        1(processor);
        nFaces          842;
        startFace       547000;
        matchTolerance  0.0001;
        transform       unknown;
        myProcNo        10;
        neighbProcNo    13;
    }
    procBoundary10to15
    {
        type            processor;
        inGroups        1(processor);
        nFaces          1580;
        startFace       547842;
        matchTolerance  0.0001;
        transform       unknown;
        myProcNo        10;
        neighbProcNo    15;
    }
)

// ************************************************************************* //
