/*--------------------------------*- C++ -*----------------------------------*\
| =========                 |                                                 |
| \\      /  F ield         | OpenFOAM: The Open Source CFD Toolbox           |
|  \\    /   O peration     | Version:  2.4.0                                 |
|   \\  /    A nd           | Web:      www.OpenFOAM.org                      |
|    \\/     M anipulation  |                                                 |
\*---------------------------------------------------------------------------*/
FoamFile
{
    version     2.0;
    format      ascii;
    class       polyBoundaryMesh;
    location    "0/polyMesh";
    object      boundary;
}
// * * * * * * * * * * * * * * * * * * * * * * * * * * * * * * * * * * * * * //

10
(
    plane1
    {
        type            symmetryPlane;
        inGroups        1(symmetryPlane);
        nFaces          0;
        startFace       2077109;
    }
    plane2
    {
        type            symmetryPlane;
        inGroups        1(symmetryPlane);
        nFaces          0;
        startFace       2077109;
    }
    outlet
    {
        type            patch;
        nFaces          0;
        startFace       2077109;
    }
    inlet
    {
        type            patch;
        nFaces          0;
        startFace       2077109;
    }
    wing
    {
        type            wall;
        inGroups        1(wall);
        nFaces          76092;
        startFace       2077109;
    }
    fan01
    {
        type            cyclic;
        inGroups        
2
(
cyclic
cyclicFaces
)
;
        nFaces          0;
        startFace       2153201;
        matchTolerance  0.0001;
        transform       unknown;
        neighbourPatch  fan02;
    }
    fan02
    {
        type            cyclic;
        inGroups        
2
(
cyclic
cyclicFaces
)
;
        nFaces          0;
        startFace       2153201;
        matchTolerance  0.0001;
        transform       unknown;
        neighbourPatch  fan01;
    }
    procBoundary3to0
    {
        type            processor;
        inGroups        1(processor);
        nFaces          4301;
        startFace       2153201;
        matchTolerance  0.0001;
        transform       unknown;
        myProcNo        3;
        neighbProcNo    0;
    }
    procBoundary3to1
    {
        type            processor;
        inGroups        1(processor);
        nFaces          5829;
        startFace       2157502;
        matchTolerance  0.0001;
        transform       unknown;
        myProcNo        3;
        neighbProcNo    1;
    }
    procBoundary3to2
    {
        type            processor;
        inGroups        1(processor);
        nFaces          8756;
        startFace       2163331;
        matchTolerance  0.0001;
        transform       unknown;
        myProcNo        3;
        neighbProcNo    2;
    }
)

// ************************************************************************* //
