/*--------------------------------*- C++ -*----------------------------------*\
| =========                 |                                                 |
| \\      /  F ield         | OpenFOAM: The Open Source CFD Toolbox           |
|  \\    /   O peration     | Version:  2.4.0                                 |
|   \\  /    A nd           | Web:      www.OpenFOAM.org                      |
|    \\/     M anipulation  |                                                 |
\*---------------------------------------------------------------------------*/
FoamFile
{
    version     2.0;
    format      ascii;
    class       polyBoundaryMesh;
    location    "0/polyMesh";
    object      boundary;
}
// * * * * * * * * * * * * * * * * * * * * * * * * * * * * * * * * * * * * * //

16
(
    plane1
    {
        type            symmetryPlane;
        inGroups        1(symmetryPlane);
        nFaces          0;
        startFace       258398;
    }
    plane2
    {
        type            symmetryPlane;
        inGroups        1(symmetryPlane);
        nFaces          0;
        startFace       258398;
    }
    outlet
    {
        type            patch;
        nFaces          0;
        startFace       258398;
    }
    inlet
    {
        type            patch;
        nFaces          0;
        startFace       258398;
    }
    wing
    {
        type            wall;
        inGroups        1(wall);
        nFaces          9361;
        startFace       258398;
    }
    fan01
    {
        type            cyclic;
        inGroups        
2
(
cyclic
cyclicFaces
)
;
        nFaces          0;
        startFace       267759;
        matchTolerance  0.0001;
        transform       unknown;
        neighbourPatch  fan02;
    }
    fan02
    {
        type            cyclic;
        inGroups        
2
(
cyclic
cyclicFaces
)
;
        nFaces          0;
        startFace       267759;
        matchTolerance  0.0001;
        transform       unknown;
        neighbourPatch  fan01;
    }
    procBoundary6to1
    {
        type            processor;
        inGroups        1(processor);
        nFaces          1011;
        startFace       267759;
        matchTolerance  0.0001;
        transform       unknown;
        myProcNo        6;
        neighbProcNo    1;
    }
    procBoundary6to4
    {
        type            processor;
        inGroups        1(processor);
        nFaces          33;
        startFace       268770;
        matchTolerance  0.0001;
        transform       unknown;
        myProcNo        6;
        neighbProcNo    4;
    }
    procBoundary6to5
    {
        type            processor;
        inGroups        1(processor);
        nFaces          1020;
        startFace       268803;
        matchTolerance  0.0001;
        transform       unknown;
        myProcNo        6;
        neighbProcNo    5;
    }
    procBoundary6to7
    {
        type            processor;
        inGroups        1(processor);
        nFaces          1727;
        startFace       269823;
        matchTolerance  0.0001;
        transform       unknown;
        myProcNo        6;
        neighbProcNo    7;
    }
    procBoundary6to10
    {
        type            processor;
        inGroups        1(processor);
        nFaces          54;
        startFace       271550;
        matchTolerance  0.0001;
        transform       unknown;
        myProcNo        6;
        neighbProcNo    10;
    }
    procBoundary6to12
    {
        type            processor;
        inGroups        1(processor);
        nFaces          126;
        startFace       271604;
        matchTolerance  0.0001;
        transform       unknown;
        myProcNo        6;
        neighbProcNo    12;
    }
    procBoundary6to20
    {
        type            processor;
        inGroups        1(processor);
        nFaces          832;
        startFace       271730;
        matchTolerance  0.0001;
        transform       unknown;
        myProcNo        6;
        neighbProcNo    20;
    }
    procBoundary6to22
    {
        type            processor;
        inGroups        1(processor);
        nFaces          1175;
        startFace       272562;
        matchTolerance  0.0001;
        transform       unknown;
        myProcNo        6;
        neighbProcNo    22;
    }
    procBoundary6to23
    {
        type            processor;
        inGroups        1(processor);
        nFaces          635;
        startFace       273737;
        matchTolerance  0.0001;
        transform       unknown;
        myProcNo        6;
        neighbProcNo    23;
    }
)

// ************************************************************************* //
