/*--------------------------------*- C++ -*----------------------------------*\
| =========                 |                                                 |
| \\      /  F ield         | OpenFOAM: The Open Source CFD Toolbox           |
|  \\    /   O peration     | Version:  2.4.0                                 |
|   \\  /    A nd           | Web:      www.OpenFOAM.org                      |
|    \\/     M anipulation  |                                                 |
\*---------------------------------------------------------------------------*/
FoamFile
{
    version     2.0;
    format      ascii;
    class       polyBoundaryMesh;
    location    "0/polyMesh";
    object      boundary;
}
// * * * * * * * * * * * * * * * * * * * * * * * * * * * * * * * * * * * * * //

12
(
    plane1
    {
        type            symmetryPlane;
        inGroups        1(symmetryPlane);
        nFaces          0;
        startFace       256729;
    }
    plane2
    {
        type            symmetryPlane;
        inGroups        1(symmetryPlane);
        nFaces          634;
        startFace       256729;
    }
    outlet
    {
        type            patch;
        nFaces          0;
        startFace       257363;
    }
    inlet
    {
        type            patch;
        nFaces          0;
        startFace       257363;
    }
    wing
    {
        type            wall;
        inGroups        1(wall);
        nFaces          9434;
        startFace       257363;
    }
    fan01
    {
        type            cyclic;
        inGroups        
2
(
cyclic
cyclicFaces
)
;
        nFaces          0;
        startFace       266797;
        matchTolerance  0.0001;
        transform       unknown;
        neighbourPatch  fan02;
    }
    fan02
    {
        type            cyclic;
        inGroups        
2
(
cyclic
cyclicFaces
)
;
        nFaces          0;
        startFace       266797;
        matchTolerance  0.0001;
        transform       unknown;
        neighbourPatch  fan01;
    }
    procBoundary16to10
    {
        type            processor;
        inGroups        1(processor);
        nFaces          43;
        startFace       266797;
        matchTolerance  0.0001;
        transform       unknown;
        myProcNo        16;
        neighbProcNo    10;
    }
    procBoundary16to17
    {
        type            processor;
        inGroups        1(processor);
        nFaces          1782;
        startFace       266840;
        matchTolerance  0.0001;
        transform       unknown;
        myProcNo        16;
        neighbProcNo    17;
    }
    procBoundary16to19
    {
        type            processor;
        inGroups        1(processor);
        nFaces          1084;
        startFace       268622;
        matchTolerance  0.0001;
        transform       unknown;
        myProcNo        16;
        neighbProcNo    19;
    }
    procBoundary16to21
    {
        type            processor;
        inGroups        1(processor);
        nFaces          1544;
        startFace       269706;
        matchTolerance  0.0001;
        transform       unknown;
        myProcNo        16;
        neighbProcNo    21;
    }
    procBoundary16to29
    {
        type            processor;
        inGroups        1(processor);
        nFaces          529;
        startFace       271250;
        matchTolerance  0.0001;
        transform       unknown;
        myProcNo        16;
        neighbProcNo    29;
    }
)

// ************************************************************************* //
