/*--------------------------------*- C++ -*----------------------------------*\
| =========                 |                                                 |
| \\      /  F ield         | OpenFOAM: The Open Source CFD Toolbox           |
|  \\    /   O peration     | Version:  2.4.0                                 |
|   \\  /    A nd           | Web:      www.OpenFOAM.org                      |
|    \\/     M anipulation  |                                                 |
\*---------------------------------------------------------------------------*/
FoamFile
{
    version     2.0;
    format      ascii;
    class       polyBoundaryMesh;
    location    "0/polyMesh";
    object      boundary;
}
// * * * * * * * * * * * * * * * * * * * * * * * * * * * * * * * * * * * * * //

11
(
    plane1
    {
        type            symmetryPlane;
        inGroups        1(symmetryPlane);
        nFaces          407;
        startFace       43216;
    }
    plane2
    {
        type            symmetryPlane;
        inGroups        1(symmetryPlane);
        nFaces          0;
        startFace       43623;
    }
    outlet
    {
        type            patch;
        nFaces          0;
        startFace       43623;
    }
    inlet
    {
        type            patch;
        nFaces          0;
        startFace       43623;
    }
    wing
    {
        type            wall;
        inGroups        1(wall);
        nFaces          2224;
        startFace       43623;
    }
    fan01
    {
        type            cyclic;
        inGroups        
2
(
cyclic
cyclicFaces
)
;
        nFaces          0;
        startFace       45847;
        matchTolerance  0.0001;
        transform       unknown;
        neighbourPatch  fan02;
    }
    fan02
    {
        type            cyclic;
        inGroups        
2
(
cyclic
cyclicFaces
)
;
        nFaces          0;
        startFace       45847;
        matchTolerance  0.0001;
        transform       unknown;
        neighbourPatch  fan01;
    }
    procBoundary28to23
    {
        type            processor;
        inGroups        1(processor);
        nFaces          23;
        startFace       45847;
        matchTolerance  0.0001;
        transform       unknown;
        myProcNo        28;
        neighbProcNo    23;
    }
    procBoundary28to25
    {
        type            processor;
        inGroups        1(processor);
        nFaces          293;
        startFace       45870;
        matchTolerance  0.0001;
        transform       unknown;
        myProcNo        28;
        neighbProcNo    25;
    }
    procBoundary28to29
    {
        type            processor;
        inGroups        1(processor);
        nFaces          345;
        startFace       46163;
        matchTolerance  0.0001;
        transform       unknown;
        myProcNo        28;
        neighbProcNo    29;
    }
    procBoundary28to30
    {
        type            processor;
        inGroups        1(processor);
        nFaces          464;
        startFace       46508;
        matchTolerance  0.0001;
        transform       unknown;
        myProcNo        28;
        neighbProcNo    30;
    }
)

// ************************************************************************* //
