/*--------------------------------*- C++ -*----------------------------------*\
| =========                 |                                                 |
| \\      /  F ield         | OpenFOAM: The Open Source CFD Toolbox           |
|  \\    /   O peration     | Version:  2.4.0                                 |
|   \\  /    A nd           | Web:      www.OpenFOAM.org                      |
|    \\/     M anipulation  |                                                 |
\*---------------------------------------------------------------------------*/
FoamFile
{
    version     2.0;
    format      ascii;
    class       polyBoundaryMesh;
    location    "0/polyMesh";
    object      boundary;
}
// * * * * * * * * * * * * * * * * * * * * * * * * * * * * * * * * * * * * * //

13
(
    plane1
    {
        type            symmetryPlane;
        inGroups        1(symmetryPlane);
        nFaces          0;
        startFace       85198;
    }
    plane2
    {
        type            symmetryPlane;
        inGroups        1(symmetryPlane);
        nFaces          448;
        startFace       85198;
    }
    outlet
    {
        type            patch;
        nFaces          0;
        startFace       85646;
    }
    inlet
    {
        type            patch;
        nFaces          0;
        startFace       85646;
    }
    wing
    {
        type            wall;
        inGroups        1(wall);
        nFaces          4368;
        startFace       85646;
    }
    fan01
    {
        type            cyclic;
        inGroups        
2
(
cyclic
cyclicFaces
)
;
        nFaces          0;
        startFace       90014;
        matchTolerance  0.0001;
        transform       unknown;
        neighbourPatch  fan02;
    }
    fan02
    {
        type            cyclic;
        inGroups        
2
(
cyclic
cyclicFaces
)
;
        nFaces          0;
        startFace       90014;
        matchTolerance  0.0001;
        transform       unknown;
        neighbourPatch  fan01;
    }
    procBoundary6to1
    {
        type            processor;
        inGroups        1(processor);
        nFaces          655;
        startFace       90014;
        matchTolerance  0.0001;
        transform       unknown;
        myProcNo        6;
        neighbProcNo    1;
    }
    procBoundary6to4
    {
        type            processor;
        inGroups        1(processor);
        nFaces          723;
        startFace       90669;
        matchTolerance  0.0001;
        transform       unknown;
        myProcNo        6;
        neighbProcNo    4;
    }
    procBoundary6to5
    {
        type            processor;
        inGroups        1(processor);
        nFaces          202;
        startFace       91392;
        matchTolerance  0.0001;
        transform       unknown;
        myProcNo        6;
        neighbProcNo    5;
    }
    procBoundary6to7
    {
        type            processor;
        inGroups        1(processor);
        nFaces          756;
        startFace       91594;
        matchTolerance  0.0001;
        transform       unknown;
        myProcNo        6;
        neighbProcNo    7;
    }
    procBoundary6to8
    {
        type            processor;
        inGroups        1(processor);
        nFaces          103;
        startFace       92350;
        matchTolerance  0.0001;
        transform       unknown;
        myProcNo        6;
        neighbProcNo    8;
    }
    procBoundary6to9
    {
        type            processor;
        inGroups        1(processor);
        nFaces          17;
        startFace       92453;
        matchTolerance  0.0001;
        transform       unknown;
        myProcNo        6;
        neighbProcNo    9;
    }
)

// ************************************************************************* //
