/*--------------------------------*- C++ -*----------------------------------*\
| =========                 |                                                 |
| \\      /  F ield         | OpenFOAM: The Open Source CFD Toolbox           |
|  \\    /   O peration     | Version:  2.4.0                                 |
|   \\  /    A nd           | Web:      www.OpenFOAM.org                      |
|    \\/     M anipulation  |                                                 |
\*---------------------------------------------------------------------------*/
FoamFile
{
    version     2.0;
    format      ascii;
    class       polyBoundaryMesh;
    location    "0/polyMesh";
    object      boundary;
}
// * * * * * * * * * * * * * * * * * * * * * * * * * * * * * * * * * * * * * //

18
(
    plane1
    {
        type            symmetryPlane;
        inGroups        1(symmetryPlane);
        nFaces          0;
        startFace       20973;
    }
    plane2
    {
        type            symmetryPlane;
        inGroups        1(symmetryPlane);
        nFaces          0;
        startFace       20973;
    }
    outlet
    {
        type            patch;
        nFaces          0;
        startFace       20973;
    }
    inlet
    {
        type            patch;
        nFaces          0;
        startFace       20973;
    }
    wing
    {
        type            wall;
        inGroups        1(wall);
        nFaces          1099;
        startFace       20973;
    }
    fan01
    {
        type            cyclic;
        inGroups        
2
(
cyclic
cyclicFaces
)
;
        nFaces          0;
        startFace       22072;
        matchTolerance  0.0001;
        transform       unknown;
        neighbourPatch  fan02;
    }
    fan02
    {
        type            cyclic;
        inGroups        
2
(
cyclic
cyclicFaces
)
;
        nFaces          0;
        startFace       22072;
        matchTolerance  0.0001;
        transform       unknown;
        neighbourPatch  fan01;
    }
    procBoundary32to2
    {
        type            processor;
        inGroups        1(processor);
        nFaces          267;
        startFace       22072;
        matchTolerance  0.0001;
        transform       unknown;
        myProcNo        32;
        neighbProcNo    2;
    }
    procBoundary32to3
    {
        type            processor;
        inGroups        1(processor);
        nFaces          4;
        startFace       22339;
        matchTolerance  0.0001;
        transform       unknown;
        myProcNo        32;
        neighbProcNo    3;
    }
    procBoundary32to5
    {
        type            processor;
        inGroups        1(processor);
        nFaces          5;
        startFace       22343;
        matchTolerance  0.0001;
        transform       unknown;
        myProcNo        32;
        neighbProcNo    5;
    }
    procBoundary32to33
    {
        type            processor;
        inGroups        1(processor);
        nFaces          271;
        startFace       22348;
        matchTolerance  0.0001;
        transform       unknown;
        myProcNo        32;
        neighbProcNo    33;
    }
    procBoundary32to35
    {
        type            processor;
        inGroups        1(processor);
        nFaces          117;
        startFace       22619;
        matchTolerance  0.0001;
        transform       unknown;
        myProcNo        32;
        neighbProcNo    35;
    }
    procBoundary32to36
    {
        type            processor;
        inGroups        1(processor);
        nFaces          93;
        startFace       22736;
        matchTolerance  0.0001;
        transform       unknown;
        myProcNo        32;
        neighbProcNo    36;
    }
    procBoundary32to37
    {
        type            processor;
        inGroups        1(processor);
        nFaces          156;
        startFace       22829;
        matchTolerance  0.0001;
        transform       unknown;
        myProcNo        32;
        neighbProcNo    37;
    }
    procBoundary32to39
    {
        type            processor;
        inGroups        1(processor);
        nFaces          154;
        startFace       22985;
        matchTolerance  0.0001;
        transform       unknown;
        myProcNo        32;
        neighbProcNo    39;
    }
    procBoundary32to40
    {
        type            processor;
        inGroups        1(processor);
        nFaces          20;
        startFace       23139;
        matchTolerance  0.0001;
        transform       unknown;
        myProcNo        32;
        neighbProcNo    40;
    }
    procBoundary32to50
    {
        type            processor;
        inGroups        1(processor);
        nFaces          276;
        startFace       23159;
        matchTolerance  0.0001;
        transform       unknown;
        myProcNo        32;
        neighbProcNo    50;
    }
    procBoundary32to51
    {
        type            processor;
        inGroups        1(processor);
        nFaces          1;
        startFace       23435;
        matchTolerance  0.0001;
        transform       unknown;
        myProcNo        32;
        neighbProcNo    51;
    }
)

// ************************************************************************* //
