/*--------------------------------*- C++ -*----------------------------------*\
| =========                 |                                                 |
| \\      /  F ield         | OpenFOAM: The Open Source CFD Toolbox           |
|  \\    /   O peration     | Version:  2.4.0                                 |
|   \\  /    A nd           | Web:      www.OpenFOAM.org                      |
|    \\/     M anipulation  |                                                 |
\*---------------------------------------------------------------------------*/
FoamFile
{
    version     2.0;
    format      ascii;
    class       polyBoundaryMesh;
    location    "0/polyMesh";
    object      boundary;
}
// * * * * * * * * * * * * * * * * * * * * * * * * * * * * * * * * * * * * * //

16
(
    plane1
    {
        type            symmetryPlane;
        inGroups        1(symmetryPlane);
        nFaces          0;
        startFace       43218;
    }
    plane2
    {
        type            symmetryPlane;
        inGroups        1(symmetryPlane);
        nFaces          0;
        startFace       43218;
    }
    outlet
    {
        type            patch;
        nFaces          0;
        startFace       43218;
    }
    inlet
    {
        type            patch;
        nFaces          0;
        startFace       43218;
    }
    wing
    {
        type            wall;
        inGroups        1(wall);
        nFaces          1891;
        startFace       43218;
    }
    fan01
    {
        type            cyclic;
        inGroups        
2
(
cyclic
cyclicFaces
)
;
        nFaces          0;
        startFace       45109;
        matchTolerance  0.0001;
        transform       unknown;
        neighbourPatch  fan02;
    }
    fan02
    {
        type            cyclic;
        inGroups        
2
(
cyclic
cyclicFaces
)
;
        nFaces          0;
        startFace       45109;
        matchTolerance  0.0001;
        transform       unknown;
        neighbourPatch  fan01;
    }
    procBoundary21to6
    {
        type            processor;
        inGroups        1(processor);
        nFaces          76;
        startFace       45109;
        matchTolerance  0.0001;
        transform       unknown;
        myProcNo        21;
        neighbProcNo    6;
    }
    procBoundary21to9
    {
        type            processor;
        inGroups        1(processor);
        nFaces          6;
        startFace       45185;
        matchTolerance  0.0001;
        transform       unknown;
        myProcNo        21;
        neighbProcNo    9;
    }
    procBoundary21to14
    {
        type            processor;
        inGroups        1(processor);
        nFaces          8;
        startFace       45191;
        matchTolerance  0.0001;
        transform       unknown;
        myProcNo        21;
        neighbProcNo    14;
    }
    procBoundary21to15
    {
        type            processor;
        inGroups        1(processor);
        nFaces          449;
        startFace       45199;
        matchTolerance  0.0001;
        transform       unknown;
        myProcNo        21;
        neighbProcNo    15;
    }
    procBoundary21to18
    {
        type            processor;
        inGroups        1(processor);
        nFaces          300;
        startFace       45648;
        matchTolerance  0.0001;
        transform       unknown;
        myProcNo        21;
        neighbProcNo    18;
    }
    procBoundary21to19
    {
        type            processor;
        inGroups        1(processor);
        nFaces          12;
        startFace       45948;
        matchTolerance  0.0001;
        transform       unknown;
        myProcNo        21;
        neighbProcNo    19;
    }
    procBoundary21to20
    {
        type            processor;
        inGroups        1(processor);
        nFaces          718;
        startFace       45960;
        matchTolerance  0.0001;
        transform       unknown;
        myProcNo        21;
        neighbProcNo    20;
    }
    procBoundary21to22
    {
        type            processor;
        inGroups        1(processor);
        nFaces          233;
        startFace       46678;
        matchTolerance  0.0001;
        transform       unknown;
        myProcNo        21;
        neighbProcNo    22;
    }
    procBoundary21to23
    {
        type            processor;
        inGroups        1(processor);
        nFaces          560;
        startFace       46911;
        matchTolerance  0.0001;
        transform       unknown;
        myProcNo        21;
        neighbProcNo    23;
    }
)

// ************************************************************************* //
