/*--------------------------------*- C++ -*----------------------------------*\
| =========                 |                                                 |
| \\      /  F ield         | OpenFOAM: The Open Source CFD Toolbox           |
|  \\    /   O peration     | Version:  2.4.0                                 |
|   \\  /    A nd           | Web:      www.OpenFOAM.org                      |
|    \\/     M anipulation  |                                                 |
\*---------------------------------------------------------------------------*/
FoamFile
{
    version     2.0;
    format      ascii;
    class       polyBoundaryMesh;
    location    "0/polyMesh";
    object      boundary;
}
// * * * * * * * * * * * * * * * * * * * * * * * * * * * * * * * * * * * * * //

14
(
    plane1
    {
        type            symmetryPlane;
        inGroups        1(symmetryPlane);
        nFaces          0;
        startFace       42689;
    }
    plane2
    {
        type            symmetryPlane;
        inGroups        1(symmetryPlane);
        nFaces          0;
        startFace       42689;
    }
    outlet
    {
        type            patch;
        nFaces          0;
        startFace       42689;
    }
    inlet
    {
        type            patch;
        nFaces          0;
        startFace       42689;
    }
    wing
    {
        type            wall;
        inGroups        1(wall);
        nFaces          2157;
        startFace       42689;
    }
    fan01
    {
        type            cyclic;
        inGroups        
2
(
cyclic
cyclicFaces
)
;
        nFaces          0;
        startFace       44846;
        matchTolerance  0.0001;
        transform       unknown;
        neighbourPatch  fan02;
    }
    fan02
    {
        type            cyclic;
        inGroups        
2
(
cyclic
cyclicFaces
)
;
        nFaces          0;
        startFace       44846;
        matchTolerance  0.0001;
        transform       unknown;
        neighbourPatch  fan01;
    }
    procBoundary1to0
    {
        type            processor;
        inGroups        1(processor);
        nFaces          433;
        startFace       44846;
        matchTolerance  0.0001;
        transform       unknown;
        myProcNo        1;
        neighbProcNo    0;
    }
    procBoundary1to2
    {
        type            processor;
        inGroups        1(processor);
        nFaces          476;
        startFace       45279;
        matchTolerance  0.0001;
        transform       unknown;
        myProcNo        1;
        neighbProcNo    2;
    }
    procBoundary1to4
    {
        type            processor;
        inGroups        1(processor);
        nFaces          8;
        startFace       45755;
        matchTolerance  0.0001;
        transform       unknown;
        myProcNo        1;
        neighbProcNo    4;
    }
    procBoundary1to5
    {
        type            processor;
        inGroups        1(processor);
        nFaces          332;
        startFace       45763;
        matchTolerance  0.0001;
        transform       unknown;
        myProcNo        1;
        neighbProcNo    5;
    }
    procBoundary1to8
    {
        type            processor;
        inGroups        1(processor);
        nFaces          320;
        startFace       46095;
        matchTolerance  0.0001;
        transform       unknown;
        myProcNo        1;
        neighbProcNo    8;
    }
    procBoundary1to10
    {
        type            processor;
        inGroups        1(processor);
        nFaces          107;
        startFace       46415;
        matchTolerance  0.0001;
        transform       unknown;
        myProcNo        1;
        neighbProcNo    10;
    }
    procBoundary1to23
    {
        type            processor;
        inGroups        1(processor);
        nFaces          44;
        startFace       46522;
        matchTolerance  0.0001;
        transform       unknown;
        myProcNo        1;
        neighbProcNo    23;
    }
)

// ************************************************************************* //
