/*--------------------------------*- C++ -*----------------------------------*\
| =========                 |                                                 |
| \\      /  F ield         | OpenFOAM: The Open Source CFD Toolbox           |
|  \\    /   O peration     | Version:  2.4.0                                 |
|   \\  /    A nd           | Web:      www.OpenFOAM.org                      |
|    \\/     M anipulation  |                                                 |
\*---------------------------------------------------------------------------*/
FoamFile
{
    version     2.0;
    format      ascii;
    class       polyBoundaryMesh;
    location    "0/polyMesh";
    object      boundary;
}
// * * * * * * * * * * * * * * * * * * * * * * * * * * * * * * * * * * * * * //

16
(
    plane1
    {
        type            symmetryPlane;
        inGroups        1(symmetryPlane);
        nFaces          0;
        startFace       21183;
    }
    plane2
    {
        type            symmetryPlane;
        inGroups        1(symmetryPlane);
        nFaces          0;
        startFace       21183;
    }
    outlet
    {
        type            patch;
        nFaces          0;
        startFace       21183;
    }
    inlet
    {
        type            patch;
        nFaces          0;
        startFace       21183;
    }
    wing
    {
        type            wall;
        inGroups        1(wall);
        nFaces          1090;
        startFace       21183;
    }
    fan01
    {
        type            cyclic;
        inGroups        
2
(
cyclic
cyclicFaces
)
;
        nFaces          0;
        startFace       22273;
        matchTolerance  0.0001;
        transform       unknown;
        neighbourPatch  fan02;
    }
    fan02
    {
        type            cyclic;
        inGroups        
2
(
cyclic
cyclicFaces
)
;
        nFaces          0;
        startFace       22273;
        matchTolerance  0.0001;
        transform       unknown;
        neighbourPatch  fan01;
    }
    procBoundary3to0
    {
        type            processor;
        inGroups        1(processor);
        nFaces          327;
        startFace       22273;
        matchTolerance  0.0001;
        transform       unknown;
        myProcNo        3;
        neighbProcNo    0;
    }
    procBoundary3to2
    {
        type            processor;
        inGroups        1(processor);
        nFaces          453;
        startFace       22600;
        matchTolerance  0.0001;
        transform       unknown;
        myProcNo        3;
        neighbProcNo    2;
    }
    procBoundary3to5
    {
        type            processor;
        inGroups        1(processor);
        nFaces          20;
        startFace       23053;
        matchTolerance  0.0001;
        transform       unknown;
        myProcNo        3;
        neighbProcNo    5;
    }
    procBoundary3to19
    {
        type            processor;
        inGroups        1(processor);
        nFaces          5;
        startFace       23073;
        matchTolerance  0.0001;
        transform       unknown;
        myProcNo        3;
        neighbProcNo    19;
    }
    procBoundary3to22
    {
        type            processor;
        inGroups        1(processor);
        nFaces          260;
        startFace       23078;
        matchTolerance  0.0001;
        transform       unknown;
        myProcNo        3;
        neighbProcNo    22;
    }
    procBoundary3to32
    {
        type            processor;
        inGroups        1(processor);
        nFaces          4;
        startFace       23338;
        matchTolerance  0.0001;
        transform       unknown;
        myProcNo        3;
        neighbProcNo    32;
    }
    procBoundary3to40
    {
        type            processor;
        inGroups        1(processor);
        nFaces          60;
        startFace       23342;
        matchTolerance  0.0001;
        transform       unknown;
        myProcNo        3;
        neighbProcNo    40;
    }
    procBoundary3to50
    {
        type            processor;
        inGroups        1(processor);
        nFaces          171;
        startFace       23402;
        matchTolerance  0.0001;
        transform       unknown;
        myProcNo        3;
        neighbProcNo    50;
    }
    procBoundary3to53
    {
        type            processor;
        inGroups        1(processor);
        nFaces          14;
        startFace       23573;
        matchTolerance  0.0001;
        transform       unknown;
        myProcNo        3;
        neighbProcNo    53;
    }
)

// ************************************************************************* //
