/*--------------------------------*- C++ -*----------------------------------*\
| =========                 |                                                 |
| \\      /  F ield         | OpenFOAM: The Open Source CFD Toolbox           |
|  \\    /   O peration     | Version:  2.4.0                                 |
|   \\  /    A nd           | Web:      www.OpenFOAM.org                      |
|    \\/     M anipulation  |                                                 |
\*---------------------------------------------------------------------------*/
FoamFile
{
    version     2.0;
    format      ascii;
    class       polyBoundaryMesh;
    location    "0/polyMesh";
    object      boundary;
}
// * * * * * * * * * * * * * * * * * * * * * * * * * * * * * * * * * * * * * //

12
(
    plane1
    {
        type            symmetryPlane;
        inGroups        1(symmetryPlane);
        nFaces          515;
        startFace       42807;
    }
    plane2
    {
        type            symmetryPlane;
        inGroups        1(symmetryPlane);
        nFaces          0;
        startFace       43322;
    }
    outlet
    {
        type            patch;
        nFaces          0;
        startFace       43322;
    }
    inlet
    {
        type            patch;
        nFaces          0;
        startFace       43322;
    }
    wing
    {
        type            wall;
        inGroups        1(wall);
        nFaces          2080;
        startFace       43322;
    }
    fan01
    {
        type            cyclic;
        inGroups        
2
(
cyclic
cyclicFaces
)
;
        nFaces          0;
        startFace       45402;
        matchTolerance  0.0001;
        transform       unknown;
        neighbourPatch  fan02;
    }
    fan02
    {
        type            cyclic;
        inGroups        
2
(
cyclic
cyclicFaces
)
;
        nFaces          0;
        startFace       45402;
        matchTolerance  0.0001;
        transform       unknown;
        neighbourPatch  fan01;
    }
    procBoundary31to16
    {
        type            processor;
        inGroups        1(processor);
        nFaces          348;
        startFace       45402;
        matchTolerance  0.0001;
        transform       unknown;
        myProcNo        31;
        neighbProcNo    16;
    }
    procBoundary31to19
    {
        type            processor;
        inGroups        1(processor);
        nFaces          259;
        startFace       45750;
        matchTolerance  0.0001;
        transform       unknown;
        myProcNo        31;
        neighbProcNo    19;
    }
    procBoundary31to23
    {
        type            processor;
        inGroups        1(processor);
        nFaces          38;
        startFace       46009;
        matchTolerance  0.0001;
        transform       unknown;
        myProcNo        31;
        neighbProcNo    23;
    }
    procBoundary31to27
    {
        type            processor;
        inGroups        1(processor);
        nFaces          292;
        startFace       46047;
        matchTolerance  0.0001;
        transform       unknown;
        myProcNo        31;
        neighbProcNo    27;
    }
    procBoundary31to30
    {
        type            processor;
        inGroups        1(processor);
        nFaces          438;
        startFace       46339;
        matchTolerance  0.0001;
        transform       unknown;
        myProcNo        31;
        neighbProcNo    30;
    }
)

// ************************************************************************* //
