/*--------------------------------*- C++ -*----------------------------------*\
| =========                 |                                                 |
| \\      /  F ield         | OpenFOAM: The Open Source CFD Toolbox           |
|  \\    /   O peration     | Version:  2.4.0                                 |
|   \\  /    A nd           | Web:      www.OpenFOAM.org                      |
|    \\/     M anipulation  |                                                 |
\*---------------------------------------------------------------------------*/
FoamFile
{
    version     2.0;
    format      ascii;
    class       polyBoundaryMesh;
    location    "0/polyMesh";
    object      boundary;
}
// * * * * * * * * * * * * * * * * * * * * * * * * * * * * * * * * * * * * * //

15
(
    plane1
    {
        type            symmetryPlane;
        inGroups        1(symmetryPlane);
        nFaces          0;
        startFace       21022;
    }
    plane2
    {
        type            symmetryPlane;
        inGroups        1(symmetryPlane);
        nFaces          0;
        startFace       21022;
    }
    outlet
    {
        type            patch;
        nFaces          0;
        startFace       21022;
    }
    inlet
    {
        type            patch;
        nFaces          0;
        startFace       21022;
    }
    wing
    {
        type            wall;
        inGroups        1(wall);
        nFaces          1126;
        startFace       21022;
    }
    fan01
    {
        type            cyclic;
        inGroups        
2
(
cyclic
cyclicFaces
)
;
        nFaces          0;
        startFace       22148;
        matchTolerance  0.0001;
        transform       unknown;
        neighbourPatch  fan02;
    }
    fan02
    {
        type            cyclic;
        inGroups        
2
(
cyclic
cyclicFaces
)
;
        nFaces          0;
        startFace       22148;
        matchTolerance  0.0001;
        transform       unknown;
        neighbourPatch  fan01;
    }
    procBoundary53to3
    {
        type            processor;
        inGroups        1(processor);
        nFaces          14;
        startFace       22148;
        matchTolerance  0.0001;
        transform       unknown;
        myProcNo        53;
        neighbProcNo    3;
    }
    procBoundary53to22
    {
        type            processor;
        inGroups        1(processor);
        nFaces          433;
        startFace       22162;
        matchTolerance  0.0001;
        transform       unknown;
        myProcNo        53;
        neighbProcNo    22;
    }
    procBoundary53to23
    {
        type            processor;
        inGroups        1(processor);
        nFaces          172;
        startFace       22595;
        matchTolerance  0.0001;
        transform       unknown;
        myProcNo        53;
        neighbProcNo    23;
    }
    procBoundary53to40
    {
        type            processor;
        inGroups        1(processor);
        nFaces          10;
        startFace       22767;
        matchTolerance  0.0001;
        transform       unknown;
        myProcNo        53;
        neighbProcNo    40;
    }
    procBoundary53to50
    {
        type            processor;
        inGroups        1(processor);
        nFaces          23;
        startFace       22777;
        matchTolerance  0.0001;
        transform       unknown;
        myProcNo        53;
        neighbProcNo    50;
    }
    procBoundary53to52
    {
        type            processor;
        inGroups        1(processor);
        nFaces          327;
        startFace       22800;
        matchTolerance  0.0001;
        transform       unknown;
        myProcNo        53;
        neighbProcNo    52;
    }
    procBoundary53to55
    {
        type            processor;
        inGroups        1(processor);
        nFaces          305;
        startFace       23127;
        matchTolerance  0.0001;
        transform       unknown;
        myProcNo        53;
        neighbProcNo    55;
    }
    procBoundary53to63
    {
        type            processor;
        inGroups        1(processor);
        nFaces          161;
        startFace       23432;
        matchTolerance  0.0001;
        transform       unknown;
        myProcNo        53;
        neighbProcNo    63;
    }
)

// ************************************************************************* //
