/*--------------------------------*- C++ -*----------------------------------*\
| =========                 |                                                 |
| \\      /  F ield         | OpenFOAM: The Open Source CFD Toolbox           |
|  \\    /   O peration     | Version:  2.4.0                                 |
|   \\  /    A nd           | Web:      www.OpenFOAM.org                      |
|    \\/     M anipulation  |                                                 |
\*---------------------------------------------------------------------------*/
FoamFile
{
    version     2.0;
    format      ascii;
    class       polyBoundaryMesh;
    location    "0/polyMesh";
    object      boundary;
}
// * * * * * * * * * * * * * * * * * * * * * * * * * * * * * * * * * * * * * //

15
(
    plane1
    {
        type            symmetryPlane;
        inGroups        1(symmetryPlane);
        nFaces          0;
        startFace       523374;
    }
    plane2
    {
        type            symmetryPlane;
        inGroups        1(symmetryPlane);
        nFaces          0;
        startFace       523374;
    }
    outlet
    {
        type            patch;
        nFaces          0;
        startFace       523374;
    }
    inlet
    {
        type            patch;
        nFaces          0;
        startFace       523374;
    }
    wing
    {
        type            wall;
        inGroups        1(wall);
        nFaces          18689;
        startFace       523374;
    }
    fan01
    {
        type            cyclic;
        inGroups        
2
(
cyclic
cyclicFaces
)
;
        nFaces          0;
        startFace       542063;
        matchTolerance  0.0001;
        transform       unknown;
        neighbourPatch  fan02;
    }
    fan02
    {
        type            cyclic;
        inGroups        
2
(
cyclic
cyclicFaces
)
;
        nFaces          0;
        startFace       542063;
        matchTolerance  0.0001;
        transform       unknown;
        neighbourPatch  fan01;
    }
    procBoundary1to0
    {
        type            processor;
        inGroups        1(processor);
        nFaces          2593;
        startFace       542063;
        matchTolerance  0.0001;
        transform       unknown;
        myProcNo        1;
        neighbProcNo    0;
    }
    procBoundary1to2
    {
        type            processor;
        inGroups        1(processor);
        nFaces          701;
        startFace       544656;
        matchTolerance  0.0001;
        transform       unknown;
        myProcNo        1;
        neighbProcNo    2;
    }
    procBoundary1to3
    {
        type            processor;
        inGroups        1(processor);
        nFaces          1004;
        startFace       545357;
        matchTolerance  0.0001;
        transform       unknown;
        myProcNo        1;
        neighbProcNo    3;
    }
    procBoundary1to6
    {
        type            processor;
        inGroups        1(processor);
        nFaces          850;
        startFace       546361;
        matchTolerance  0.0001;
        transform       unknown;
        myProcNo        1;
        neighbProcNo    6;
    }
    procBoundary1to7
    {
        type            processor;
        inGroups        1(processor);
        nFaces          1478;
        startFace       547211;
        matchTolerance  0.0001;
        transform       unknown;
        myProcNo        1;
        neighbProcNo    7;
    }
    procBoundary1to11
    {
        type            processor;
        inGroups        1(processor);
        nFaces          155;
        startFace       548689;
        matchTolerance  0.0001;
        transform       unknown;
        myProcNo        1;
        neighbProcNo    11;
    }
    procBoundary1to14
    {
        type            processor;
        inGroups        1(processor);
        nFaces          2416;
        startFace       548844;
        matchTolerance  0.0001;
        transform       unknown;
        myProcNo        1;
        neighbProcNo    14;
    }
    procBoundary1to15
    {
        type            processor;
        inGroups        1(processor);
        nFaces          637;
        startFace       551260;
        matchTolerance  0.0001;
        transform       unknown;
        myProcNo        1;
        neighbProcNo    15;
    }
)

// ************************************************************************* //
