/*--------------------------------*- C++ -*----------------------------------*\
| =========                 |                                                 |
| \\      /  F ield         | OpenFOAM: The Open Source CFD Toolbox           |
|  \\    /   O peration     | Version:  2.4.0                                 |
|   \\  /    A nd           | Web:      www.OpenFOAM.org                      |
|    \\/     M anipulation  |                                                 |
\*---------------------------------------------------------------------------*/
FoamFile
{
    version     2.0;
    format      ascii;
    class       polyBoundaryMesh;
    location    "0/polyMesh";
    object      boundary;
}
// * * * * * * * * * * * * * * * * * * * * * * * * * * * * * * * * * * * * * //

16
(
    plane1
    {
        type            symmetryPlane;
        inGroups        1(symmetryPlane);
        nFaces          0;
        startFace       20825;
    }
    plane2
    {
        type            symmetryPlane;
        inGroups        1(symmetryPlane);
        nFaces          0;
        startFace       20825;
    }
    outlet
    {
        type            patch;
        nFaces          0;
        startFace       20825;
    }
    inlet
    {
        type            patch;
        nFaces          0;
        startFace       20825;
    }
    wing
    {
        type            wall;
        inGroups        1(wall);
        nFaces          1046;
        startFace       20825;
    }
    fan01
    {
        type            cyclic;
        inGroups        
2
(
cyclic
cyclicFaces
)
;
        nFaces          0;
        startFace       21871;
        matchTolerance  0.0001;
        transform       unknown;
        neighbourPatch  fan02;
    }
    fan02
    {
        type            cyclic;
        inGroups        
2
(
cyclic
cyclicFaces
)
;
        nFaces          0;
        startFace       21871;
        matchTolerance  0.0001;
        transform       unknown;
        neighbourPatch  fan01;
    }
    procBoundary15to4
    {
        type            processor;
        inGroups        1(processor);
        nFaces          20;
        startFace       21871;
        matchTolerance  0.0001;
        transform       unknown;
        myProcNo        15;
        neighbProcNo    4;
    }
    procBoundary15to6
    {
        type            processor;
        inGroups        1(processor);
        nFaces          395;
        startFace       21891;
        matchTolerance  0.0001;
        transform       unknown;
        myProcNo        15;
        neighbProcNo    6;
    }
    procBoundary15to13
    {
        type            processor;
        inGroups        1(processor);
        nFaces          225;
        startFace       22286;
        matchTolerance  0.0001;
        transform       unknown;
        myProcNo        15;
        neighbProcNo    13;
    }
    procBoundary15to14
    {
        type            processor;
        inGroups        1(processor);
        nFaces          417;
        startFace       22511;
        matchTolerance  0.0001;
        transform       unknown;
        myProcNo        15;
        neighbProcNo    14;
    }
    procBoundary15to25
    {
        type            processor;
        inGroups        1(processor);
        nFaces          4;
        startFace       22928;
        matchTolerance  0.0001;
        transform       unknown;
        myProcNo        15;
        neighbProcNo    25;
    }
    procBoundary15to28
    {
        type            processor;
        inGroups        1(processor);
        nFaces          394;
        startFace       22932;
        matchTolerance  0.0001;
        transform       unknown;
        myProcNo        15;
        neighbProcNo    28;
    }
    procBoundary15to40
    {
        type            processor;
        inGroups        1(processor);
        nFaces          40;
        startFace       23326;
        matchTolerance  0.0001;
        transform       unknown;
        myProcNo        15;
        neighbProcNo    40;
    }
    procBoundary15to42
    {
        type            processor;
        inGroups        1(processor);
        nFaces          6;
        startFace       23366;
        matchTolerance  0.0001;
        transform       unknown;
        myProcNo        15;
        neighbProcNo    42;
    }
    procBoundary15to47
    {
        type            processor;
        inGroups        1(processor);
        nFaces          4;
        startFace       23372;
        matchTolerance  0.0001;
        transform       unknown;
        myProcNo        15;
        neighbProcNo    47;
    }
)

// ************************************************************************* //
