/*--------------------------------*- C++ -*----------------------------------*\
| =========                 |                                                 |
| \\      /  F ield         | OpenFOAM: The Open Source CFD Toolbox           |
|  \\    /   O peration     | Version:  2.4.0                                 |
|   \\  /    A nd           | Web:      www.OpenFOAM.org                      |
|    \\/     M anipulation  |                                                 |
\*---------------------------------------------------------------------------*/
FoamFile
{
    version     2.0;
    format      ascii;
    class       polyBoundaryMesh;
    location    "0/polyMesh";
    object      boundary;
}
// * * * * * * * * * * * * * * * * * * * * * * * * * * * * * * * * * * * * * //

13
(
    plane1
    {
        type            symmetryPlane;
        inGroups        1(symmetryPlane);
        nFaces          0;
        startFace       43218;
    }
    plane2
    {
        type            symmetryPlane;
        inGroups        1(symmetryPlane);
        nFaces          444;
        startFace       43218;
    }
    outlet
    {
        type            patch;
        nFaces          0;
        startFace       43662;
    }
    inlet
    {
        type            patch;
        nFaces          0;
        startFace       43662;
    }
    wing
    {
        type            wall;
        inGroups        1(wall);
        nFaces          2186;
        startFace       43662;
    }
    fan01
    {
        type            cyclic;
        inGroups        
2
(
cyclic
cyclicFaces
)
;
        nFaces          0;
        startFace       45848;
        matchTolerance  0.0001;
        transform       unknown;
        neighbourPatch  fan02;
    }
    fan02
    {
        type            cyclic;
        inGroups        
2
(
cyclic
cyclicFaces
)
;
        nFaces          0;
        startFace       45848;
        matchTolerance  0.0001;
        transform       unknown;
        neighbourPatch  fan01;
    }
    procBoundary11to4
    {
        type            processor;
        inGroups        1(processor);
        nFaces          228;
        startFace       45848;
        matchTolerance  0.0001;
        transform       unknown;
        myProcNo        11;
        neighbProcNo    4;
    }
    procBoundary11to5
    {
        type            processor;
        inGroups        1(processor);
        nFaces          72;
        startFace       46076;
        matchTolerance  0.0001;
        transform       unknown;
        myProcNo        11;
        neighbProcNo    5;
    }
    procBoundary11to10
    {
        type            processor;
        inGroups        1(processor);
        nFaces          494;
        startFace       46148;
        matchTolerance  0.0001;
        transform       unknown;
        myProcNo        11;
        neighbProcNo    10;
    }
    procBoundary11to12
    {
        type            processor;
        inGroups        1(processor);
        nFaces          378;
        startFace       46642;
        matchTolerance  0.0001;
        transform       unknown;
        myProcNo        11;
        neighbProcNo    12;
    }
    procBoundary11to14
    {
        type            processor;
        inGroups        1(processor);
        nFaces          3;
        startFace       47020;
        matchTolerance  0.0001;
        transform       unknown;
        myProcNo        11;
        neighbProcNo    14;
    }
    procBoundary11to23
    {
        type            processor;
        inGroups        1(processor);
        nFaces          15;
        startFace       47023;
        matchTolerance  0.0001;
        transform       unknown;
        myProcNo        11;
        neighbProcNo    23;
    }
)

// ************************************************************************* //
