/*--------------------------------*- C++ -*----------------------------------*\
| =========                 |                                                 |
| \\      /  F ield         | OpenFOAM: The Open Source CFD Toolbox           |
|  \\    /   O peration     | Version:  2.4.0                                 |
|   \\  /    A nd           | Web:      www.OpenFOAM.org                      |
|    \\/     M anipulation  |                                                 |
\*---------------------------------------------------------------------------*/
FoamFile
{
    version     2.0;
    format      ascii;
    class       polyBoundaryMesh;
    location    "0/polyMesh";
    object      boundary;
}
// * * * * * * * * * * * * * * * * * * * * * * * * * * * * * * * * * * * * * //

16
(
    plane1
    {
        type            symmetryPlane;
        inGroups        1(symmetryPlane);
        nFaces          0;
        startFace       259421;
    }
    plane2
    {
        type            symmetryPlane;
        inGroups        1(symmetryPlane);
        nFaces          0;
        startFace       259421;
    }
    outlet
    {
        type            patch;
        nFaces          0;
        startFace       259421;
    }
    inlet
    {
        type            patch;
        nFaces          0;
        startFace       259421;
    }
    wing
    {
        type            wall;
        inGroups        1(wall);
        nFaces          9750;
        startFace       259421;
    }
    fan01
    {
        type            cyclic;
        inGroups        
2
(
cyclic
cyclicFaces
)
;
        nFaces          0;
        startFace       269171;
        matchTolerance  0.0001;
        transform       unknown;
        neighbourPatch  fan02;
    }
    fan02
    {
        type            cyclic;
        inGroups        
2
(
cyclic
cyclicFaces
)
;
        nFaces          0;
        startFace       269171;
        matchTolerance  0.0001;
        transform       unknown;
        neighbourPatch  fan01;
    }
    procBoundary31to8
    {
        type            processor;
        inGroups        1(processor);
        nFaces          5;
        startFace       269171;
        matchTolerance  0.0001;
        transform       unknown;
        myProcNo        31;
        neighbProcNo    8;
    }
    procBoundary31to10
    {
        type            processor;
        inGroups        1(processor);
        nFaces          18;
        startFace       269176;
        matchTolerance  0.0001;
        transform       unknown;
        myProcNo        31;
        neighbProcNo    10;
    }
    procBoundary31to15
    {
        type            processor;
        inGroups        1(processor);
        nFaces          1062;
        startFace       269194;
        matchTolerance  0.0001;
        transform       unknown;
        myProcNo        31;
        neighbProcNo    15;
    }
    procBoundary31to21
    {
        type            processor;
        inGroups        1(processor);
        nFaces          75;
        startFace       270256;
        matchTolerance  0.0001;
        transform       unknown;
        myProcNo        31;
        neighbProcNo    21;
    }
    procBoundary31to22
    {
        type            processor;
        inGroups        1(processor);
        nFaces          858;
        startFace       270331;
        matchTolerance  0.0001;
        transform       unknown;
        myProcNo        31;
        neighbProcNo    22;
    }
    procBoundary31to23
    {
        type            processor;
        inGroups        1(processor);
        nFaces          946;
        startFace       271189;
        matchTolerance  0.0001;
        transform       unknown;
        myProcNo        31;
        neighbProcNo    23;
    }
    procBoundary31to26
    {
        type            processor;
        inGroups        1(processor);
        nFaces          183;
        startFace       272135;
        matchTolerance  0.0001;
        transform       unknown;
        myProcNo        31;
        neighbProcNo    26;
    }
    procBoundary31to27
    {
        type            processor;
        inGroups        1(processor);
        nFaces          1158;
        startFace       272318;
        matchTolerance  0.0001;
        transform       unknown;
        myProcNo        31;
        neighbProcNo    27;
    }
    procBoundary31to30
    {
        type            processor;
        inGroups        1(processor);
        nFaces          1307;
        startFace       273476;
        matchTolerance  0.0001;
        transform       unknown;
        myProcNo        31;
        neighbProcNo    30;
    }
)

// ************************************************************************* //
