/*--------------------------------*- C++ -*----------------------------------*\
| =========                 |                                                 |
| \\      /  F ield         | OpenFOAM: The Open Source CFD Toolbox           |
|  \\    /   O peration     | Version:  2.4.0                                 |
|   \\  /    A nd           | Web:      www.OpenFOAM.org                      |
|    \\/     M anipulation  |                                                 |
\*---------------------------------------------------------------------------*/
FoamFile
{
    version     2.0;
    format      ascii;
    class       polyBoundaryMesh;
    location    "0/polyMesh";
    object      boundary;
}
// * * * * * * * * * * * * * * * * * * * * * * * * * * * * * * * * * * * * * //

14
(
    plane1
    {
        type            symmetryPlane;
        inGroups        1(symmetryPlane);
        nFaces          0;
        startFace       20906;
    }
    plane2
    {
        type            symmetryPlane;
        inGroups        1(symmetryPlane);
        nFaces          0;
        startFace       20906;
    }
    outlet
    {
        type            patch;
        nFaces          0;
        startFace       20906;
    }
    inlet
    {
        type            patch;
        nFaces          0;
        startFace       20906;
    }
    wing
    {
        type            wall;
        inGroups        1(wall);
        nFaces          1115;
        startFace       20906;
    }
    fan01
    {
        type            cyclic;
        inGroups        
2
(
cyclic
cyclicFaces
)
;
        nFaces          0;
        startFace       22021;
        matchTolerance  0.0001;
        transform       unknown;
        neighbourPatch  fan02;
    }
    fan02
    {
        type            cyclic;
        inGroups        
2
(
cyclic
cyclicFaces
)
;
        nFaces          0;
        startFace       22021;
        matchTolerance  0.0001;
        transform       unknown;
        neighbourPatch  fan01;
    }
    procBoundary29to25
    {
        type            processor;
        inGroups        1(processor);
        nFaces          284;
        startFace       22021;
        matchTolerance  0.0001;
        transform       unknown;
        myProcNo        29;
        neighbProcNo    25;
    }
    procBoundary29to27
    {
        type            processor;
        inGroups        1(processor);
        nFaces          232;
        startFace       22305;
        matchTolerance  0.0001;
        transform       unknown;
        myProcNo        29;
        neighbProcNo    27;
    }
    procBoundary29to28
    {
        type            processor;
        inGroups        1(processor);
        nFaces          355;
        startFace       22537;
        matchTolerance  0.0001;
        transform       unknown;
        myProcNo        29;
        neighbProcNo    28;
    }
    procBoundary29to30
    {
        type            processor;
        inGroups        1(processor);
        nFaces          201;
        startFace       22892;
        matchTolerance  0.0001;
        transform       unknown;
        myProcNo        29;
        neighbProcNo    30;
    }
    procBoundary29to31
    {
        type            processor;
        inGroups        1(processor);
        nFaces          244;
        startFace       23093;
        matchTolerance  0.0001;
        transform       unknown;
        myProcNo        29;
        neighbProcNo    31;
    }
    procBoundary29to40
    {
        type            processor;
        inGroups        1(processor);
        nFaces          6;
        startFace       23337;
        matchTolerance  0.0001;
        transform       unknown;
        myProcNo        29;
        neighbProcNo    40;
    }
    procBoundary29to41
    {
        type            processor;
        inGroups        1(processor);
        nFaces          1;
        startFace       23343;
        matchTolerance  0.0001;
        transform       unknown;
        myProcNo        29;
        neighbProcNo    41;
    }
)

// ************************************************************************* //
