/*--------------------------------*- C++ -*----------------------------------*\
| =========                 |                                                 |
| \\      /  F ield         | OpenFOAM: The Open Source CFD Toolbox           |
|  \\    /   O peration     | Version:  2.4.0                                 |
|   \\  /    A nd           | Web:      www.OpenFOAM.org                      |
|    \\/     M anipulation  |                                                 |
\*---------------------------------------------------------------------------*/
FoamFile
{
    version     2.0;
    format      ascii;
    class       polyBoundaryMesh;
    location    "0/polyMesh";
    object      boundary;
}
// * * * * * * * * * * * * * * * * * * * * * * * * * * * * * * * * * * * * * //

15
(
    plane1
    {
        type            symmetryPlane;
        inGroups        1(symmetryPlane);
        nFaces          183;
        startFace       42684;
    }
    plane2
    {
        type            symmetryPlane;
        inGroups        1(symmetryPlane);
        nFaces          0;
        startFace       42867;
    }
    outlet
    {
        type            patch;
        nFaces          0;
        startFace       42867;
    }
    inlet
    {
        type            patch;
        nFaces          0;
        startFace       42867;
    }
    wing
    {
        type            wall;
        inGroups        1(wall);
        nFaces          2022;
        startFace       42867;
    }
    fan01
    {
        type            cyclic;
        inGroups        
2
(
cyclic
cyclicFaces
)
;
        nFaces          0;
        startFace       44889;
        matchTolerance  0.0001;
        transform       unknown;
        neighbourPatch  fan02;
    }
    fan02
    {
        type            cyclic;
        inGroups        
2
(
cyclic
cyclicFaces
)
;
        nFaces          0;
        startFace       44889;
        matchTolerance  0.0001;
        transform       unknown;
        neighbourPatch  fan01;
    }
    procBoundary25to0
    {
        type            processor;
        inGroups        1(processor);
        nFaces          38;
        startFace       44889;
        matchTolerance  0.0001;
        transform       unknown;
        myProcNo        25;
        neighbProcNo    0;
    }
    procBoundary25to8
    {
        type            processor;
        inGroups        1(processor);
        nFaces          42;
        startFace       44927;
        matchTolerance  0.0001;
        transform       unknown;
        myProcNo        25;
        neighbProcNo    8;
    }
    procBoundary25to23
    {
        type            processor;
        inGroups        1(processor);
        nFaces          73;
        startFace       44969;
        matchTolerance  0.0001;
        transform       unknown;
        myProcNo        25;
        neighbProcNo    23;
    }
    procBoundary25to24
    {
        type            processor;
        inGroups        1(processor);
        nFaces          417;
        startFace       45042;
        matchTolerance  0.0001;
        transform       unknown;
        myProcNo        25;
        neighbProcNo    24;
    }
    procBoundary25to26
    {
        type            processor;
        inGroups        1(processor);
        nFaces          583;
        startFace       45459;
        matchTolerance  0.0001;
        transform       unknown;
        myProcNo        25;
        neighbProcNo    26;
    }
    procBoundary25to27
    {
        type            processor;
        inGroups        1(processor);
        nFaces          6;
        startFace       46042;
        matchTolerance  0.0001;
        transform       unknown;
        myProcNo        25;
        neighbProcNo    27;
    }
    procBoundary25to28
    {
        type            processor;
        inGroups        1(processor);
        nFaces          293;
        startFace       46048;
        matchTolerance  0.0001;
        transform       unknown;
        myProcNo        25;
        neighbProcNo    28;
    }
    procBoundary25to29
    {
        type            processor;
        inGroups        1(processor);
        nFaces          233;
        startFace       46341;
        matchTolerance  0.0001;
        transform       unknown;
        myProcNo        25;
        neighbProcNo    29;
    }
)

// ************************************************************************* //
