/*--------------------------------*- C++ -*----------------------------------*\
| =========                 |                                                 |
| \\      /  F ield         | OpenFOAM: The Open Source CFD Toolbox           |
|  \\    /   O peration     | Version:  2.4.0                                 |
|   \\  /    A nd           | Web:      www.OpenFOAM.org                      |
|    \\/     M anipulation  |                                                 |
\*---------------------------------------------------------------------------*/
FoamFile
{
    version     2.0;
    format      ascii;
    class       polyBoundaryMesh;
    location    "0/polyMesh";
    object      boundary;
}
// * * * * * * * * * * * * * * * * * * * * * * * * * * * * * * * * * * * * * //

14
(
    plane1
    {
        type            symmetryPlane;
        inGroups        1(symmetryPlane);
        nFaces          0;
        startFace       42500;
    }
    plane2
    {
        type            symmetryPlane;
        inGroups        1(symmetryPlane);
        nFaces          422;
        startFace       42500;
    }
    outlet
    {
        type            patch;
        nFaces          0;
        startFace       42922;
    }
    inlet
    {
        type            patch;
        nFaces          0;
        startFace       42922;
    }
    wing
    {
        type            wall;
        inGroups        1(wall);
        nFaces          1933;
        startFace       42922;
    }
    fan01
    {
        type            cyclic;
        inGroups        
2
(
cyclic
cyclicFaces
)
;
        nFaces          0;
        startFace       44855;
        matchTolerance  0.0001;
        transform       unknown;
        neighbourPatch  fan02;
    }
    fan02
    {
        type            cyclic;
        inGroups        
2
(
cyclic
cyclicFaces
)
;
        nFaces          0;
        startFace       44855;
        matchTolerance  0.0001;
        transform       unknown;
        neighbourPatch  fan01;
    }
    procBoundary13to6
    {
        type            processor;
        inGroups        1(processor);
        nFaces          170;
        startFace       44855;
        matchTolerance  0.0001;
        transform       unknown;
        myProcNo        13;
        neighbProcNo    6;
    }
    procBoundary13to7
    {
        type            processor;
        inGroups        1(processor);
        nFaces          558;
        startFace       45025;
        matchTolerance  0.0001;
        transform       unknown;
        myProcNo        13;
        neighbProcNo    7;
    }
    procBoundary13to12
    {
        type            processor;
        inGroups        1(processor);
        nFaces          426;
        startFace       45583;
        matchTolerance  0.0001;
        transform       unknown;
        myProcNo        13;
        neighbProcNo    12;
    }
    procBoundary13to14
    {
        type            processor;
        inGroups        1(processor);
        nFaces          221;
        startFace       46009;
        matchTolerance  0.0001;
        transform       unknown;
        myProcNo        13;
        neighbProcNo    14;
    }
    procBoundary13to15
    {
        type            processor;
        inGroups        1(processor);
        nFaces          108;
        startFace       46230;
        matchTolerance  0.0001;
        transform       unknown;
        myProcNo        13;
        neighbProcNo    15;
    }
    procBoundary13to23
    {
        type            processor;
        inGroups        1(processor);
        nFaces          205;
        startFace       46338;
        matchTolerance  0.0001;
        transform       unknown;
        myProcNo        13;
        neighbProcNo    23;
    }
    procBoundary13to23throughfan02
    {
        type            processorCyclic;
        inGroups        1(processorCyclic);
        nFaces          3;
        startFace       46543;
        matchTolerance  0.0001;
        transform       unknown;
        myProcNo        13;
        neighbProcNo    23;
        referPatch      fan02;
    }
)

// ************************************************************************* //
