/*--------------------------------*- C++ -*----------------------------------*\
| =========                 |                                                 |
| \\      /  F ield         | OpenFOAM: The Open Source CFD Toolbox           |
|  \\    /   O peration     | Version:  2.4.0                                 |
|   \\  /    A nd           | Web:      www.OpenFOAM.org                      |
|    \\/     M anipulation  |                                                 |
\*---------------------------------------------------------------------------*/
FoamFile
{
    version     2.0;
    format      ascii;
    class       polyBoundaryMesh;
    location    "0/polyMesh";
    object      boundary;
}
// * * * * * * * * * * * * * * * * * * * * * * * * * * * * * * * * * * * * * //

12
(
    plane1
    {
        type            symmetryPlane;
        inGroups        1(symmetryPlane);
        nFaces          0;
        startFace       256239;
    }
    plane2
    {
        type            symmetryPlane;
        inGroups        1(symmetryPlane);
        nFaces          1516;
        startFace       256239;
    }
    outlet
    {
        type            patch;
        nFaces          0;
        startFace       257755;
    }
    inlet
    {
        type            patch;
        nFaces          0;
        startFace       257755;
    }
    wing
    {
        type            wall;
        inGroups        1(wall);
        nFaces          9210;
        startFace       257755;
    }
    fan01
    {
        type            cyclic;
        inGroups        
2
(
cyclic
cyclicFaces
)
;
        nFaces          0;
        startFace       266965;
        matchTolerance  0.0001;
        transform       unknown;
        neighbourPatch  fan02;
    }
    fan02
    {
        type            cyclic;
        inGroups        
2
(
cyclic
cyclicFaces
)
;
        nFaces          0;
        startFace       266965;
        matchTolerance  0.0001;
        transform       unknown;
        neighbourPatch  fan01;
    }
    procBoundary29to10
    {
        type            processor;
        inGroups        1(processor);
        nFaces          32;
        startFace       266965;
        matchTolerance  0.0001;
        transform       unknown;
        myProcNo        29;
        neighbProcNo    10;
    }
    procBoundary29to16
    {
        type            processor;
        inGroups        1(processor);
        nFaces          529;
        startFace       266997;
        matchTolerance  0.0001;
        transform       unknown;
        myProcNo        29;
        neighbProcNo    16;
    }
    procBoundary29to21
    {
        type            processor;
        inGroups        1(processor);
        nFaces          861;
        startFace       267526;
        matchTolerance  0.0001;
        transform       unknown;
        myProcNo        29;
        neighbProcNo    21;
    }
    procBoundary29to28
    {
        type            processor;
        inGroups        1(processor);
        nFaces          1533;
        startFace       268387;
        matchTolerance  0.0001;
        transform       unknown;
        myProcNo        29;
        neighbProcNo    28;
    }
    procBoundary29to30
    {
        type            processor;
        inGroups        1(processor);
        nFaces          616;
        startFace       269920;
        matchTolerance  0.0001;
        transform       unknown;
        myProcNo        29;
        neighbProcNo    30;
    }
)

// ************************************************************************* //
