/*--------------------------------*- C++ -*----------------------------------*\
| =========                 |                                                 |
| \\      /  F ield         | OpenFOAM: The Open Source CFD Toolbox           |
|  \\    /   O peration     | Version:  2.4.0                                 |
|   \\  /    A nd           | Web:      www.OpenFOAM.org                      |
|    \\/     M anipulation  |                                                 |
\*---------------------------------------------------------------------------*/
FoamFile
{
    version     2.0;
    format      ascii;
    class       polyBoundaryMesh;
    location    "0/polyMesh";
    object      boundary;
}
// * * * * * * * * * * * * * * * * * * * * * * * * * * * * * * * * * * * * * //

12
(
    plane1
    {
        type            symmetryPlane;
        inGroups        1(symmetryPlane);
        nFaces          1517;
        startFace       258162;
    }
    plane2
    {
        type            symmetryPlane;
        inGroups        1(symmetryPlane);
        nFaces          0;
        startFace       259679;
    }
    outlet
    {
        type            patch;
        nFaces          0;
        startFace       259679;
    }
    inlet
    {
        type            patch;
        nFaces          0;
        startFace       259679;
    }
    wing
    {
        type            wall;
        inGroups        1(wall);
        nFaces          9758;
        startFace       259679;
    }
    fan01
    {
        type            cyclic;
        inGroups        
2
(
cyclic
cyclicFaces
)
;
        nFaces          0;
        startFace       269437;
        matchTolerance  0.0001;
        transform       unknown;
        neighbourPatch  fan02;
    }
    fan02
    {
        type            cyclic;
        inGroups        
2
(
cyclic
cyclicFaces
)
;
        nFaces          0;
        startFace       269437;
        matchTolerance  0.0001;
        transform       unknown;
        neighbourPatch  fan01;
    }
    procBoundary4to3
    {
        type            processor;
        inGroups        1(processor);
        nFaces          656;
        startFace       269437;
        matchTolerance  0.0001;
        transform       unknown;
        myProcNo        4;
        neighbProcNo    3;
    }
    procBoundary4to5
    {
        type            processor;
        inGroups        1(processor);
        nFaces          1946;
        startFace       270093;
        matchTolerance  0.0001;
        transform       unknown;
        myProcNo        4;
        neighbProcNo    5;
    }
    procBoundary4to6
    {
        type            processor;
        inGroups        1(processor);
        nFaces          33;
        startFace       272039;
        matchTolerance  0.0001;
        transform       unknown;
        myProcNo        4;
        neighbProcNo    6;
    }
    procBoundary4to7
    {
        type            processor;
        inGroups        1(processor);
        nFaces          1484;
        startFace       272072;
        matchTolerance  0.0001;
        transform       unknown;
        myProcNo        4;
        neighbProcNo    7;
    }
    procBoundary4to10
    {
        type            processor;
        inGroups        1(processor);
        nFaces          44;
        startFace       273556;
        matchTolerance  0.0001;
        transform       unknown;
        myProcNo        4;
        neighbProcNo    10;
    }
)

// ************************************************************************* //
